*SPEF "ieee 1481-1999"
*DESIGN "tt_um_jimktrains_vslc"
*DATE "04:30:40 Friday January 31, 2025"
*VENDOR "The OpenROAD Project"
*PROGRAM "OpenROAD"
*VERSION "b16bda7e82721d10566ff7e2b68f1ff0be9f9e38"
*DESIGN_FLOW "NAME_SCOPE LOCAL" "PIN_CAP NONE"
*DIVIDER /
*DELIMITER :
*BUS_DELIMITER []
*T_UNIT 1 NS
*C_UNIT 1 PF
*R_UNIT 1 OHM
*L_UNIT 1 HENRY

*NAME_MAP
*3 clk
*4 ena
*5 rst_n
*6 ui_in[0]
*7 ui_in[1]
*8 ui_in[2]
*9 ui_in[3]
*10 ui_in[4]
*11 ui_in[5]
*12 ui_in[6]
*13 ui_in[7]
*14 uio_in[0]
*15 uio_in[1]
*16 uio_in[2]
*17 uio_in[3]
*18 uio_in[4]
*19 uio_in[5]
*20 uio_in[6]
*21 uio_in[7]
*22 uio_oe[0]
*23 uio_oe[1]
*24 uio_oe[2]
*25 net63
*26 net64
*27 net65
*28 uio_oe[6]
*29 uio_oe[7]
*30 uio_out[0]
*31 uio_out[1]
*32 uio_out[2]
*33 net66
*34 net67
*35 net68
*36 uio_out[6]
*37 uio_out[7]
*38 uo_out[0]
*39 uo_out[1]
*40 uo_out[2]
*41 uo_out[3]
*42 uo_out[4]
*43 uo_out[5]
*44 uo_out[6]
*45 uo_out[7]
*46 _0143_
*47 _0144_
*48 _0145_
*49 _0146_
*50 _0147_
*51 _0148_
*52 _0149_
*53 _0150_
*54 _0151_
*55 _0152_
*56 _0153_
*57 _0154_
*58 _0155_
*59 _0156_
*60 _0157_
*61 _0158_
*62 _0159_
*63 _0160_
*64 _0161_
*65 _0162_
*66 _0163_
*67 _0164_
*68 _0165_
*69 _0166_
*70 _0167_
*71 _0168_
*72 _0169_
*73 _0170_
*74 _0171_
*75 _0172_
*76 _0173_
*77 _0174_
*78 _0175_
*79 _0176_
*80 _0177_
*81 _0178_
*82 _0179_
*83 _0180_
*84 _0181_
*85 _0182_
*86 _0183_
*87 _0184_
*88 _0185_
*89 _0186_
*90 _0187_
*91 _0188_
*92 _0189_
*93 _0190_
*94 _0191_
*95 _0192_
*96 _0193_
*97 _0194_
*98 _0195_
*99 _0196_
*100 _0197_
*101 _0198_
*102 _0199_
*103 _0200_
*104 _0201_
*105 _0202_
*106 _0203_
*107 _0204_
*108 _0205_
*109 _0206_
*110 _0207_
*111 _0208_
*112 _0209_
*113 _0210_
*114 _0211_
*115 _0212_
*116 _0213_
*117 _0214_
*118 _0215_
*119 _0216_
*120 _0217_
*121 _0218_
*122 _0219_
*123 _0220_
*124 _0221_
*125 _0222_
*126 _0223_
*127 _0224_
*128 _0225_
*129 _0226_
*130 _0227_
*131 _0228_
*132 _0229_
*133 _0230_
*134 _0231_
*135 _0232_
*136 _0233_
*137 _0234_
*138 _0235_
*139 _0236_
*140 _0237_
*141 _0238_
*142 _0239_
*143 _0240_
*144 _0241_
*145 _0242_
*146 _0243_
*147 _0244_
*148 _0245_
*149 _0246_
*150 _0247_
*151 _0248_
*152 _0249_
*153 _0250_
*154 _0251_
*155 _0252_
*156 _0253_
*157 _0254_
*158 _0255_
*159 _0256_
*160 _0257_
*161 _0258_
*162 _0259_
*163 _0260_
*164 _0261_
*165 _0262_
*166 _0263_
*167 _0264_
*168 _0265_
*169 _0266_
*170 _0267_
*171 _0268_
*172 _0269_
*173 _0270_
*174 _0271_
*175 _0272_
*176 _0273_
*177 _0274_
*178 _0275_
*179 _0276_
*180 _0277_
*181 _0278_
*182 _0279_
*183 _0280_
*184 _0281_
*185 _0282_
*186 _0283_
*187 _0284_
*188 _0285_
*189 _0286_
*190 _0287_
*191 _0288_
*192 _0289_
*193 _0290_
*194 _0291_
*195 _0292_
*196 _0293_
*197 _0294_
*198 _0295_
*199 _0296_
*200 _0297_
*201 _0298_
*202 _0299_
*203 _0300_
*204 _0301_
*205 _0302_
*206 _0303_
*207 _0304_
*208 _0305_
*209 _0306_
*210 _0307_
*211 _0308_
*212 _0309_
*213 _0310_
*214 _0311_
*215 _0312_
*216 _0313_
*217 _0314_
*218 _0315_
*219 _0316_
*220 _0317_
*221 _0318_
*222 _0319_
*223 _0320_
*224 _0321_
*225 _0322_
*226 _0323_
*227 _0324_
*228 _0325_
*229 _0326_
*230 _0327_
*231 _0328_
*232 _0329_
*233 _0330_
*234 _0331_
*235 _0332_
*236 _0333_
*237 _0334_
*238 _0335_
*239 _0336_
*240 _0337_
*241 _0338_
*242 _0339_
*243 _0340_
*244 _0341_
*245 _0342_
*246 _0343_
*247 _0344_
*248 _0345_
*249 _0346_
*250 _0347_
*251 _0348_
*252 _0349_
*253 _0350_
*254 _0351_
*255 _0352_
*256 _0353_
*257 _0354_
*258 _0355_
*259 _0356_
*260 _0357_
*261 _0358_
*262 _0359_
*263 _0360_
*264 _0361_
*265 _0362_
*266 _0363_
*267 _0364_
*268 _0365_
*269 _0366_
*270 _0367_
*271 _0368_
*272 _0369_
*273 _0370_
*274 _0371_
*275 _0372_
*276 _0373_
*277 _0374_
*278 _0375_
*279 _0376_
*280 _0377_
*281 _0378_
*282 _0379_
*283 _0380_
*284 _0381_
*285 _0382_
*286 _0383_
*287 _0384_
*288 _0385_
*289 _0386_
*290 _0387_
*291 _0388_
*292 _0389_
*293 _0390_
*294 _0391_
*295 _0392_
*296 _0393_
*297 _0394_
*298 _0395_
*299 _0396_
*300 _0397_
*301 _0398_
*302 _0399_
*303 _0400_
*304 _0401_
*305 _0402_
*306 _0403_
*307 _0404_
*308 _0405_
*309 _0406_
*310 _0407_
*311 _0408_
*312 _0409_
*313 _0410_
*314 _0411_
*315 _0412_
*316 _0413_
*317 _0414_
*318 _0415_
*319 _0416_
*320 _0417_
*321 _0418_
*322 _0419_
*323 _0420_
*324 _0421_
*325 _0422_
*326 _0423_
*327 _0424_
*328 _0425_
*329 _0426_
*330 _0427_
*331 _0428_
*332 _0429_
*333 _0430_
*334 _0431_
*335 _0432_
*336 _0433_
*337 _0434_
*338 _0435_
*339 _0436_
*340 _0437_
*341 _0438_
*342 _0439_
*343 _0440_
*344 _0441_
*345 _0442_
*346 _0443_
*347 _0444_
*348 _0445_
*349 _0446_
*350 _0447_
*351 _0448_
*352 _0449_
*353 _0450_
*354 _0451_
*355 _0452_
*356 _0453_
*357 _0454_
*358 _0455_
*359 _0456_
*360 _0457_
*361 _0458_
*362 _0459_
*363 _0460_
*364 _0461_
*365 _0462_
*366 _0463_
*367 _0464_
*368 _0465_
*369 _0466_
*370 _0467_
*371 _0468_
*372 _0469_
*373 _0470_
*374 _0471_
*375 _0472_
*376 _0473_
*377 _0474_
*378 _0475_
*379 _0476_
*380 _0477_
*381 _0478_
*382 _0479_
*383 _0480_
*384 _0481_
*385 _0482_
*386 _0483_
*387 _0484_
*388 _0485_
*389 _0486_
*390 _0487_
*391 _0488_
*392 _0489_
*393 _0490_
*394 _0491_
*395 _0492_
*396 _0493_
*397 _0494_
*398 _0495_
*399 _0496_
*400 _0497_
*401 _0498_
*402 _0499_
*403 _0500_
*404 _0501_
*405 _0502_
*406 _0503_
*407 _0504_
*408 _0505_
*409 _0506_
*410 _0507_
*411 _0508_
*412 _0509_
*413 _0510_
*414 _0511_
*415 _0512_
*416 _0513_
*417 _0514_
*418 _0515_
*419 _0516_
*420 _0517_
*421 _0518_
*422 _0519_
*423 _0520_
*424 _0521_
*425 _0522_
*426 _0523_
*427 _0524_
*428 _0525_
*429 _0526_
*430 _0527_
*431 _0528_
*432 _0529_
*433 _0530_
*434 _0531_
*435 _0532_
*436 _0533_
*437 _0534_
*438 _0535_
*439 _0536_
*440 _0537_
*441 _0538_
*442 _0539_
*443 _0540_
*444 _0541_
*445 _0542_
*446 _0543_
*447 _0544_
*448 _0545_
*449 _0546_
*450 _0547_
*451 _0548_
*452 _0549_
*453 _0550_
*454 _0551_
*455 _0552_
*456 _0553_
*457 _0554_
*458 _0555_
*459 _0556_
*460 _0557_
*461 _0558_
*462 _0559_
*463 _0560_
*464 _0561_
*465 _0562_
*466 _0563_
*467 _0564_
*468 _0565_
*469 _0566_
*470 _0567_
*471 _0568_
*472 _0569_
*473 _0570_
*474 _0571_
*475 _0572_
*476 _0573_
*477 _0574_
*478 _0575_
*479 _0576_
*480 _0577_
*481 _0578_
*482 _0579_
*483 _0580_
*484 _0581_
*485 _0582_
*486 _0583_
*487 _0584_
*488 _0585_
*489 _0586_
*490 _0587_
*491 _0588_
*492 _0589_
*493 _0590_
*494 _0591_
*495 _0592_
*496 _0593_
*497 _0594_
*498 _0595_
*499 _0596_
*500 _0597_
*501 _0598_
*502 _0599_
*503 _0600_
*504 _0601_
*505 _0602_
*506 _0603_
*507 _0604_
*508 _0605_
*509 _0606_
*510 _0607_
*511 _0608_
*512 _0609_
*513 _0610_
*514 _0611_
*515 _0612_
*516 _0613_
*517 _0614_
*518 _0615_
*519 _0616_
*520 _0617_
*521 _0618_
*522 _0619_
*523 _0620_
*524 _0621_
*525 _0622_
*526 _0623_
*527 _0624_
*528 _0625_
*529 _0626_
*530 _0627_
*531 _0628_
*532 _0629_
*533 _0630_
*534 _0631_
*535 _0632_
*536 _0633_
*537 _0634_
*538 _0635_
*539 _0636_
*540 _0637_
*541 _0638_
*542 _0639_
*543 _0640_
*544 _0641_
*545 _0642_
*546 _0643_
*547 _0644_
*548 _0645_
*549 _0646_
*550 _0647_
*551 _0648_
*552 _0649_
*553 _0650_
*554 _0651_
*555 _0652_
*556 _0653_
*557 _0654_
*558 _0655_
*559 _0656_
*560 _0657_
*561 _0658_
*562 _0659_
*563 _0660_
*564 _0661_
*565 _0662_
*566 _0663_
*567 _0664_
*568 _0665_
*569 _0666_
*570 _0667_
*571 _0668_
*572 _0669_
*573 _0670_
*574 _0671_
*575 _0672_
*576 _0673_
*577 _0674_
*578 _0675_
*579 _0676_
*580 _0677_
*581 _0678_
*582 _0679_
*583 _0680_
*584 _0681_
*585 _0682_
*586 _0683_
*587 _0684_
*588 _0685_
*589 _0686_
*590 _0687_
*591 _0688_
*592 _0689_
*593 _0690_
*594 _0691_
*595 _0692_
*596 _0693_
*597 _0694_
*598 _0695_
*599 _0696_
*600 _0697_
*601 _0698_
*602 _0699_
*603 _0700_
*604 _0701_
*605 _0702_
*606 _0703_
*607 _0704_
*608 _0705_
*609 _0706_
*610 _0707_
*611 _0708_
*612 _0709_
*613 _0710_
*614 _0711_
*615 _0712_
*616 _0713_
*617 _0714_
*618 _0715_
*619 _0716_
*620 _0717_
*621 _0718_
*622 _0719_
*623 _0720_
*624 _0721_
*625 _0722_
*626 _0723_
*627 _0724_
*628 clknet_0_clk
*629 clknet_4_0_0_clk
*630 clknet_4_10_0_clk
*631 clknet_4_11_0_clk
*632 clknet_4_12_0_clk
*633 clknet_4_13_0_clk
*634 clknet_4_14_0_clk
*635 clknet_4_15_0_clk
*636 clknet_4_1_0_clk
*637 clknet_4_2_0_clk
*638 clknet_4_3_0_clk
*639 clknet_4_4_0_clk
*640 clknet_4_5_0_clk
*641 clknet_4_6_0_clk
*642 clknet_4_7_0_clk
*643 clknet_4_8_0_clk
*644 clknet_4_9_0_clk
*645 cur_addr\[0\]
*646 cur_addr\[1\]
*647 cur_addr\[2\]
*648 cur_addr\[3\]
*649 cur_addr\[4\]
*650 cur_addr\[5\]
*651 cur_addr\[6\]
*652 cur_addr\[7\]
*653 cycle_end_addr\[0\]
*654 cycle_end_addr\[1\]
*655 cycle_end_addr\[2\]
*656 cycle_end_addr\[3\]
*657 cycle_end_addr\[4\]
*658 cycle_end_addr\[5\]
*659 cycle_end_addr\[6\]
*660 cycle_end_addr\[7\]
*661 cycle_start_addr\[0\]
*662 cycle_start_addr\[1\]
*663 cycle_start_addr\[2\]
*664 cycle_start_addr\[3\]
*665 cycle_start_addr\[4\]
*666 cycle_start_addr\[5\]
*667 cycle_start_addr\[6\]
*668 cycle_start_addr\[7\]
*669 eeprom_copi
*670 eeprom_cs
*671 eeprom_oe_copi
*672 eeprom_sck
*673 fetch_count\[0\]
*674 fetch_count\[1\]
*675 fetch_count\[2\]
*676 fetch_prev_state\[0\]
*677 fetch_prev_state\[1\]
*678 fetch_prev_state\[2\]
*679 fetch_prev_state\[3\]
*680 fetch_state\[0\]
*681 fetch_state\[1\]
*682 fetch_state\[2\]
*683 fetch_state\[3\]
*684 instr\[0\]
*685 instr\[1\]
*686 instr\[2\]
*687 instr\[3\]
*688 instr\[4\]
*689 instr\[5\]
*690 instr\[6\]
*691 instr\[7\]
*692 net1
*693 net10
*694 net100
*695 net101
*696 net102
*697 net103
*698 net104
*699 net105
*700 net106
*701 net107
*702 net108
*703 net109
*704 net11
*705 net110
*706 net111
*707 net112
*708 net113
*709 net114
*710 net115
*711 net116
*712 net117
*713 net118
*714 net119
*715 net12
*716 net120
*717 net121
*718 net122
*719 net123
*720 net124
*721 net125
*722 net126
*723 net127
*724 net128
*725 net129
*726 net13
*727 net130
*728 net131
*729 net132
*730 net133
*731 net134
*732 net135
*733 net136
*734 net137
*735 net138
*736 net139
*737 net14
*738 net140
*739 net141
*740 net142
*741 net143
*742 net144
*743 net145
*744 net146
*745 net147
*746 net148
*747 net149
*748 net15
*749 net150
*750 net151
*751 net152
*752 net153
*753 net154
*754 net155
*755 net156
*756 net157
*757 net158
*758 net159
*759 net16
*760 net160
*761 net161
*762 net162
*763 net163
*764 net164
*765 net165
*766 net166
*767 net167
*768 net168
*769 net169
*770 net17
*771 net170
*772 net171
*773 net172
*774 net173
*775 net174
*776 net175
*777 net176
*778 net177
*779 net178
*780 net179
*781 net18
*782 net180
*783 net181
*784 net182
*785 net183
*786 net184
*787 net185
*788 net186
*789 net187
*790 net188
*791 net189
*792 net19
*793 net190
*794 net191
*795 net192
*796 net193
*797 net194
*798 net195
*799 net196
*800 net197
*801 net198
*802 net199
*803 net2
*804 net20
*805 net200
*806 net201
*807 net202
*808 net203
*809 net204
*810 net205
*811 net206
*812 net207
*813 net208
*814 net209
*815 net21
*816 net210
*817 net211
*818 net212
*819 net213
*820 net214
*821 net215
*822 net216
*823 net217
*824 net218
*825 net219
*826 net22
*827 net220
*828 net221
*829 net222
*830 net223
*831 net224
*832 net225
*833 net226
*834 net227
*835 net228
*836 net229
*837 net23
*838 net230
*839 net231
*840 net232
*841 net233
*842 net234
*843 net235
*844 net236
*845 net237
*846 net238
*847 net239
*848 net24
*849 net240
*850 net241
*851 net242
*852 net243
*853 net244
*854 net245
*855 net246
*856 net247
*857 net248
*858 net249
*859 net25
*860 net250
*861 net251
*862 net252
*863 net253
*864 net254
*865 net255
*866 net256
*867 net257
*868 net258
*869 net259
*870 net26
*871 net260
*872 net261
*873 net262
*874 net263
*875 net264
*876 net265
*877 net266
*878 net27
*879 net28
*880 net29
*881 net3
*882 net30
*883 net31
*884 net32
*885 net33
*886 net34
*887 net35
*888 net36
*889 net37
*890 net38
*891 net39
*892 net4
*893 net40
*894 net41
*895 net42
*896 net43
*897 net44
*898 net45
*899 net46
*900 net47
*901 net48
*902 net49
*903 net5
*904 net50
*905 net51
*906 net52
*907 net53
*908 net54
*909 net55
*910 net56
*911 net57
*912 net58
*913 net59
*914 net6
*915 net60
*916 net61
*917 net62
*918 net69
*919 net7
*920 net70
*921 net71
*922 net72
*923 net73
*924 net74
*925 net75
*926 net76
*927 net77
*928 net78
*929 net79
*930 net8
*931 net80
*932 net81
*933 net82
*934 net83
*935 net84
*936 net85
*937 net86
*938 net87
*939 net88
*940 net89
*941 net9
*942 net90
*943 net91
*944 net92
*945 net93
*946 net94
*947 net95
*948 net96
*949 net97
*950 net98
*951 net99
*952 stack\[0\]
*953 stack\[10\]
*954 stack\[11\]
*955 stack\[12\]
*956 stack\[13\]
*957 stack\[14\]
*958 stack\[15\]
*959 stack\[1\]
*960 stack\[2\]
*961 stack\[3\]
*962 stack\[4\]
*963 stack\[5\]
*964 stack\[6\]
*965 stack\[7\]
*966 stack\[8\]
*967 stack\[9\]
*968 stack_out
*969 timer_clock_counter\[0\]
*970 timer_clock_counter\[10\]
*971 timer_clock_counter\[11\]
*972 timer_clock_counter\[12\]
*973 timer_clock_counter\[13\]
*974 timer_clock_counter\[14\]
*975 timer_clock_counter\[15\]
*976 timer_clock_counter\[1\]
*977 timer_clock_counter\[2\]
*978 timer_clock_counter\[3\]
*979 timer_clock_counter\[4\]
*980 timer_clock_counter\[5\]
*981 timer_clock_counter\[6\]
*982 timer_clock_counter\[7\]
*983 timer_clock_counter\[8\]
*984 timer_clock_counter\[9\]
*985 timer_clock_divisor\[0\]
*986 timer_clock_divisor\[1\]
*987 timer_clock_divisor\[2\]
*988 timer_clock_divisor\[3\]
*989 timer_counter\[0\]
*990 timer_counter\[10\]
*991 timer_counter\[11\]
*992 timer_counter\[12\]
*993 timer_counter\[13\]
*994 timer_counter\[14\]
*995 timer_counter\[15\]
*996 timer_counter\[1\]
*997 timer_counter\[2\]
*998 timer_counter\[3\]
*999 timer_counter\[4\]
*1000 timer_counter\[5\]
*1001 timer_counter\[6\]
*1002 timer_counter\[7\]
*1003 timer_counter\[8\]
*1004 timer_counter\[9\]
*1005 timer_enabled
*1006 timer_mode
*1007 timer_out
*1008 timer_period_a\[0\]
*1009 timer_period_a\[10\]
*1010 timer_period_a\[11\]
*1011 timer_period_a\[12\]
*1012 timer_period_a\[13\]
*1013 timer_period_a\[14\]
*1014 timer_period_a\[15\]
*1015 timer_period_a\[1\]
*1016 timer_period_a\[2\]
*1017 timer_period_a\[3\]
*1018 timer_period_a\[4\]
*1019 timer_period_a\[5\]
*1020 timer_period_a\[6\]
*1021 timer_period_a\[7\]
*1022 timer_period_a\[8\]
*1023 timer_period_a\[9\]
*1024 timer_period_b\[0\]
*1025 timer_period_b\[10\]
*1026 timer_period_b\[11\]
*1027 timer_period_b\[12\]
*1028 timer_period_b\[13\]
*1029 timer_period_b\[14\]
*1030 timer_period_b\[15\]
*1031 timer_period_b\[1\]
*1032 timer_period_b\[2\]
*1033 timer_period_b\[3\]
*1034 timer_period_b\[4\]
*1035 timer_period_b\[5\]
*1036 timer_period_b\[6\]
*1037 timer_period_b\[7\]
*1038 timer_period_b\[8\]
*1039 timer_period_b\[9\]
*1040 timer_phase
*1041 ui_in_reg\[0\]
*1042 ui_in_reg\[1\]
*1043 ui_in_reg\[2\]
*1044 ui_in_reg\[3\]
*1045 ui_in_reg\[4\]
*1046 ui_in_reg\[5\]
*1047 ui_in_reg\[6\]
*1048 ui_in_reg\[7\]
*1049 uio_in_reg\[3\]
*1050 ANTENNA_1
*1051 FILLER_0_0_109
*1052 FILLER_0_0_113
*1053 FILLER_0_0_125
*1054 FILLER_0_0_137
*1055 FILLER_0_0_141
*1056 FILLER_0_0_15
*1057 FILLER_0_0_153
*1058 FILLER_0_0_165
*1059 FILLER_0_0_169
*1060 FILLER_0_0_181
*1061 FILLER_0_0_193
*1062 FILLER_0_0_197
*1063 FILLER_0_0_209
*1064 FILLER_0_0_221
*1065 FILLER_0_0_225
*1066 FILLER_0_0_237
*1067 FILLER_0_0_249
*1068 FILLER_0_0_253
*1069 FILLER_0_0_265
*1070 FILLER_0_0_27
*1071 FILLER_0_0_277
*1072 FILLER_0_0_281
*1073 FILLER_0_0_29
*1074 FILLER_0_0_293
*1075 FILLER_0_0_3
*1076 FILLER_0_0_305
*1077 FILLER_0_0_309
*1078 FILLER_0_0_321
*1079 FILLER_0_0_333
*1080 FILLER_0_0_41
*1081 FILLER_0_0_53
*1082 FILLER_0_0_57
*1083 FILLER_0_0_69
*1084 FILLER_0_0_81
*1085 FILLER_0_0_85
*1086 FILLER_0_0_97
*1087 FILLER_0_10_109
*1088 FILLER_0_10_121
*1089 FILLER_0_10_133
*1090 FILLER_0_10_139
*1091 FILLER_0_10_141
*1092 FILLER_0_10_15
*1093 FILLER_0_10_153
*1094 FILLER_0_10_165
*1095 FILLER_0_10_177
*1096 FILLER_0_10_189
*1097 FILLER_0_10_195
*1098 FILLER_0_10_197
*1099 FILLER_0_10_209
*1100 FILLER_0_10_221
*1101 FILLER_0_10_233
*1102 FILLER_0_10_245
*1103 FILLER_0_10_251
*1104 FILLER_0_10_253
*1105 FILLER_0_10_265
*1106 FILLER_0_10_27
*1107 FILLER_0_10_277
*1108 FILLER_0_10_289
*1109 FILLER_0_10_29
*1110 FILLER_0_10_3
*1111 FILLER_0_10_301
*1112 FILLER_0_10_307
*1113 FILLER_0_10_309
*1114 FILLER_0_10_321
*1115 FILLER_0_10_333
*1116 FILLER_0_10_41
*1117 FILLER_0_10_53
*1118 FILLER_0_10_65
*1119 FILLER_0_10_77
*1120 FILLER_0_10_83
*1121 FILLER_0_10_85
*1122 FILLER_0_10_97
*1123 FILLER_0_11_105
*1124 FILLER_0_11_111
*1125 FILLER_0_11_113
*1126 FILLER_0_11_125
*1127 FILLER_0_11_137
*1128 FILLER_0_11_149
*1129 FILLER_0_11_15
*1130 FILLER_0_11_161
*1131 FILLER_0_11_167
*1132 FILLER_0_11_169
*1133 FILLER_0_11_181
*1134 FILLER_0_11_193
*1135 FILLER_0_11_205
*1136 FILLER_0_11_217
*1137 FILLER_0_11_223
*1138 FILLER_0_11_225
*1139 FILLER_0_11_237
*1140 FILLER_0_11_249
*1141 FILLER_0_11_261
*1142 FILLER_0_11_27
*1143 FILLER_0_11_273
*1144 FILLER_0_11_279
*1145 FILLER_0_11_281
*1146 FILLER_0_11_293
*1147 FILLER_0_11_3
*1148 FILLER_0_11_305
*1149 FILLER_0_11_317
*1150 FILLER_0_11_329
*1151 FILLER_0_11_39
*1152 FILLER_0_11_51
*1153 FILLER_0_11_55
*1154 FILLER_0_11_57
*1155 FILLER_0_11_69
*1156 FILLER_0_11_81
*1157 FILLER_0_11_93
*1158 FILLER_0_12_109
*1159 FILLER_0_12_121
*1160 FILLER_0_12_133
*1161 FILLER_0_12_139
*1162 FILLER_0_12_141
*1163 FILLER_0_12_15
*1164 FILLER_0_12_153
*1165 FILLER_0_12_165
*1166 FILLER_0_12_177
*1167 FILLER_0_12_189
*1168 FILLER_0_12_195
*1169 FILLER_0_12_197
*1170 FILLER_0_12_209
*1171 FILLER_0_12_221
*1172 FILLER_0_12_233
*1173 FILLER_0_12_245
*1174 FILLER_0_12_251
*1175 FILLER_0_12_253
*1176 FILLER_0_12_265
*1177 FILLER_0_12_27
*1178 FILLER_0_12_277
*1179 FILLER_0_12_289
*1180 FILLER_0_12_29
*1181 FILLER_0_12_3
*1182 FILLER_0_12_301
*1183 FILLER_0_12_307
*1184 FILLER_0_12_309
*1185 FILLER_0_12_321
*1186 FILLER_0_12_333
*1187 FILLER_0_12_41
*1188 FILLER_0_12_53
*1189 FILLER_0_12_65
*1190 FILLER_0_12_77
*1191 FILLER_0_12_83
*1192 FILLER_0_12_85
*1193 FILLER_0_12_97
*1194 FILLER_0_13_105
*1195 FILLER_0_13_111
*1196 FILLER_0_13_113
*1197 FILLER_0_13_125
*1198 FILLER_0_13_137
*1199 FILLER_0_13_149
*1200 FILLER_0_13_15
*1201 FILLER_0_13_161
*1202 FILLER_0_13_167
*1203 FILLER_0_13_169
*1204 FILLER_0_13_181
*1205 FILLER_0_13_193
*1206 FILLER_0_13_205
*1207 FILLER_0_13_217
*1208 FILLER_0_13_223
*1209 FILLER_0_13_225
*1210 FILLER_0_13_237
*1211 FILLER_0_13_249
*1212 FILLER_0_13_261
*1213 FILLER_0_13_27
*1214 FILLER_0_13_273
*1215 FILLER_0_13_279
*1216 FILLER_0_13_281
*1217 FILLER_0_13_293
*1218 FILLER_0_13_3
*1219 FILLER_0_13_305
*1220 FILLER_0_13_317
*1221 FILLER_0_13_329
*1222 FILLER_0_13_39
*1223 FILLER_0_13_51
*1224 FILLER_0_13_55
*1225 FILLER_0_13_57
*1226 FILLER_0_13_69
*1227 FILLER_0_13_81
*1228 FILLER_0_13_93
*1229 FILLER_0_14_109
*1230 FILLER_0_14_121
*1231 FILLER_0_14_133
*1232 FILLER_0_14_139
*1233 FILLER_0_14_141
*1234 FILLER_0_14_15
*1235 FILLER_0_14_153
*1236 FILLER_0_14_165
*1237 FILLER_0_14_177
*1238 FILLER_0_14_189
*1239 FILLER_0_14_195
*1240 FILLER_0_14_197
*1241 FILLER_0_14_209
*1242 FILLER_0_14_221
*1243 FILLER_0_14_233
*1244 FILLER_0_14_245
*1245 FILLER_0_14_251
*1246 FILLER_0_14_253
*1247 FILLER_0_14_265
*1248 FILLER_0_14_27
*1249 FILLER_0_14_277
*1250 FILLER_0_14_289
*1251 FILLER_0_14_29
*1252 FILLER_0_14_3
*1253 FILLER_0_14_301
*1254 FILLER_0_14_307
*1255 FILLER_0_14_309
*1256 FILLER_0_14_321
*1257 FILLER_0_14_333
*1258 FILLER_0_14_41
*1259 FILLER_0_14_53
*1260 FILLER_0_14_65
*1261 FILLER_0_14_77
*1262 FILLER_0_14_83
*1263 FILLER_0_14_85
*1264 FILLER_0_14_97
*1265 FILLER_0_15_105
*1266 FILLER_0_15_111
*1267 FILLER_0_15_113
*1268 FILLER_0_15_125
*1269 FILLER_0_15_137
*1270 FILLER_0_15_149
*1271 FILLER_0_15_15
*1272 FILLER_0_15_161
*1273 FILLER_0_15_167
*1274 FILLER_0_15_169
*1275 FILLER_0_15_181
*1276 FILLER_0_15_193
*1277 FILLER_0_15_205
*1278 FILLER_0_15_217
*1279 FILLER_0_15_223
*1280 FILLER_0_15_225
*1281 FILLER_0_15_237
*1282 FILLER_0_15_249
*1283 FILLER_0_15_261
*1284 FILLER_0_15_27
*1285 FILLER_0_15_273
*1286 FILLER_0_15_279
*1287 FILLER_0_15_281
*1288 FILLER_0_15_293
*1289 FILLER_0_15_3
*1290 FILLER_0_15_305
*1291 FILLER_0_15_317
*1292 FILLER_0_15_329
*1293 FILLER_0_15_39
*1294 FILLER_0_15_51
*1295 FILLER_0_15_55
*1296 FILLER_0_15_57
*1297 FILLER_0_15_69
*1298 FILLER_0_15_81
*1299 FILLER_0_15_93
*1300 FILLER_0_16_109
*1301 FILLER_0_16_121
*1302 FILLER_0_16_133
*1303 FILLER_0_16_139
*1304 FILLER_0_16_141
*1305 FILLER_0_16_15
*1306 FILLER_0_16_153
*1307 FILLER_0_16_165
*1308 FILLER_0_16_177
*1309 FILLER_0_16_189
*1310 FILLER_0_16_195
*1311 FILLER_0_16_197
*1312 FILLER_0_16_209
*1313 FILLER_0_16_221
*1314 FILLER_0_16_233
*1315 FILLER_0_16_245
*1316 FILLER_0_16_251
*1317 FILLER_0_16_253
*1318 FILLER_0_16_265
*1319 FILLER_0_16_27
*1320 FILLER_0_16_277
*1321 FILLER_0_16_289
*1322 FILLER_0_16_29
*1323 FILLER_0_16_3
*1324 FILLER_0_16_301
*1325 FILLER_0_16_307
*1326 FILLER_0_16_309
*1327 FILLER_0_16_321
*1328 FILLER_0_16_333
*1329 FILLER_0_16_41
*1330 FILLER_0_16_53
*1331 FILLER_0_16_65
*1332 FILLER_0_16_77
*1333 FILLER_0_16_83
*1334 FILLER_0_16_85
*1335 FILLER_0_16_97
*1336 FILLER_0_17_105
*1337 FILLER_0_17_111
*1338 FILLER_0_17_113
*1339 FILLER_0_17_125
*1340 FILLER_0_17_137
*1341 FILLER_0_17_149
*1342 FILLER_0_17_15
*1343 FILLER_0_17_161
*1344 FILLER_0_17_167
*1345 FILLER_0_17_169
*1346 FILLER_0_17_181
*1347 FILLER_0_17_193
*1348 FILLER_0_17_205
*1349 FILLER_0_17_217
*1350 FILLER_0_17_223
*1351 FILLER_0_17_225
*1352 FILLER_0_17_237
*1353 FILLER_0_17_249
*1354 FILLER_0_17_261
*1355 FILLER_0_17_27
*1356 FILLER_0_17_273
*1357 FILLER_0_17_279
*1358 FILLER_0_17_281
*1359 FILLER_0_17_293
*1360 FILLER_0_17_3
*1361 FILLER_0_17_305
*1362 FILLER_0_17_317
*1363 FILLER_0_17_329
*1364 FILLER_0_17_39
*1365 FILLER_0_17_51
*1366 FILLER_0_17_55
*1367 FILLER_0_17_57
*1368 FILLER_0_17_69
*1369 FILLER_0_17_81
*1370 FILLER_0_17_93
*1371 FILLER_0_18_109
*1372 FILLER_0_18_121
*1373 FILLER_0_18_133
*1374 FILLER_0_18_139
*1375 FILLER_0_18_141
*1376 FILLER_0_18_15
*1377 FILLER_0_18_153
*1378 FILLER_0_18_165
*1379 FILLER_0_18_177
*1380 FILLER_0_18_189
*1381 FILLER_0_18_195
*1382 FILLER_0_18_197
*1383 FILLER_0_18_209
*1384 FILLER_0_18_221
*1385 FILLER_0_18_233
*1386 FILLER_0_18_245
*1387 FILLER_0_18_251
*1388 FILLER_0_18_253
*1389 FILLER_0_18_265
*1390 FILLER_0_18_27
*1391 FILLER_0_18_277
*1392 FILLER_0_18_289
*1393 FILLER_0_18_29
*1394 FILLER_0_18_3
*1395 FILLER_0_18_301
*1396 FILLER_0_18_307
*1397 FILLER_0_18_309
*1398 FILLER_0_18_321
*1399 FILLER_0_18_333
*1400 FILLER_0_18_41
*1401 FILLER_0_18_53
*1402 FILLER_0_18_65
*1403 FILLER_0_18_77
*1404 FILLER_0_18_83
*1405 FILLER_0_18_85
*1406 FILLER_0_18_97
*1407 FILLER_0_19_105
*1408 FILLER_0_19_111
*1409 FILLER_0_19_113
*1410 FILLER_0_19_125
*1411 FILLER_0_19_137
*1412 FILLER_0_19_149
*1413 FILLER_0_19_15
*1414 FILLER_0_19_161
*1415 FILLER_0_19_166
*1416 FILLER_0_19_169
*1417 FILLER_0_19_177
*1418 FILLER_0_19_181
*1419 FILLER_0_19_193
*1420 FILLER_0_19_205
*1421 FILLER_0_19_217
*1422 FILLER_0_19_223
*1423 FILLER_0_19_225
*1424 FILLER_0_19_237
*1425 FILLER_0_19_249
*1426 FILLER_0_19_261
*1427 FILLER_0_19_27
*1428 FILLER_0_19_273
*1429 FILLER_0_19_279
*1430 FILLER_0_19_281
*1431 FILLER_0_19_293
*1432 FILLER_0_19_3
*1433 FILLER_0_19_305
*1434 FILLER_0_19_317
*1435 FILLER_0_19_329
*1436 FILLER_0_19_39
*1437 FILLER_0_19_51
*1438 FILLER_0_19_55
*1439 FILLER_0_19_57
*1440 FILLER_0_19_69
*1441 FILLER_0_19_81
*1442 FILLER_0_19_93
*1443 FILLER_0_1_105
*1444 FILLER_0_1_111
*1445 FILLER_0_1_113
*1446 FILLER_0_1_125
*1447 FILLER_0_1_137
*1448 FILLER_0_1_149
*1449 FILLER_0_1_15
*1450 FILLER_0_1_161
*1451 FILLER_0_1_167
*1452 FILLER_0_1_169
*1453 FILLER_0_1_181
*1454 FILLER_0_1_193
*1455 FILLER_0_1_205
*1456 FILLER_0_1_217
*1457 FILLER_0_1_223
*1458 FILLER_0_1_225
*1459 FILLER_0_1_237
*1460 FILLER_0_1_249
*1461 FILLER_0_1_261
*1462 FILLER_0_1_27
*1463 FILLER_0_1_273
*1464 FILLER_0_1_279
*1465 FILLER_0_1_281
*1466 FILLER_0_1_293
*1467 FILLER_0_1_3
*1468 FILLER_0_1_305
*1469 FILLER_0_1_317
*1470 FILLER_0_1_329
*1471 FILLER_0_1_39
*1472 FILLER_0_1_51
*1473 FILLER_0_1_55
*1474 FILLER_0_1_57
*1475 FILLER_0_1_69
*1476 FILLER_0_1_81
*1477 FILLER_0_1_93
*1478 FILLER_0_20_109
*1479 FILLER_0_20_121
*1480 FILLER_0_20_133
*1481 FILLER_0_20_139
*1482 FILLER_0_20_141
*1483 FILLER_0_20_15
*1484 FILLER_0_20_153
*1485 FILLER_0_20_175
*1486 FILLER_0_20_193
*1487 FILLER_0_20_197
*1488 FILLER_0_20_209
*1489 FILLER_0_20_221
*1490 FILLER_0_20_233
*1491 FILLER_0_20_245
*1492 FILLER_0_20_251
*1493 FILLER_0_20_253
*1494 FILLER_0_20_265
*1495 FILLER_0_20_27
*1496 FILLER_0_20_277
*1497 FILLER_0_20_289
*1498 FILLER_0_20_29
*1499 FILLER_0_20_3
*1500 FILLER_0_20_301
*1501 FILLER_0_20_307
*1502 FILLER_0_20_309
*1503 FILLER_0_20_321
*1504 FILLER_0_20_333
*1505 FILLER_0_20_41
*1506 FILLER_0_20_53
*1507 FILLER_0_20_65
*1508 FILLER_0_20_77
*1509 FILLER_0_20_83
*1510 FILLER_0_20_85
*1511 FILLER_0_20_97
*1512 FILLER_0_21_105
*1513 FILLER_0_21_111
*1514 FILLER_0_21_113
*1515 FILLER_0_21_125
*1516 FILLER_0_21_137
*1517 FILLER_0_21_149
*1518 FILLER_0_21_15
*1519 FILLER_0_21_161
*1520 FILLER_0_21_169
*1521 FILLER_0_21_208
*1522 FILLER_0_21_220
*1523 FILLER_0_21_225
*1524 FILLER_0_21_237
*1525 FILLER_0_21_249
*1526 FILLER_0_21_261
*1527 FILLER_0_21_27
*1528 FILLER_0_21_273
*1529 FILLER_0_21_279
*1530 FILLER_0_21_281
*1531 FILLER_0_21_293
*1532 FILLER_0_21_3
*1533 FILLER_0_21_305
*1534 FILLER_0_21_317
*1535 FILLER_0_21_329
*1536 FILLER_0_21_39
*1537 FILLER_0_21_51
*1538 FILLER_0_21_55
*1539 FILLER_0_21_57
*1540 FILLER_0_21_69
*1541 FILLER_0_21_81
*1542 FILLER_0_21_93
*1543 FILLER_0_22_109
*1544 FILLER_0_22_121
*1545 FILLER_0_22_133
*1546 FILLER_0_22_139
*1547 FILLER_0_22_141
*1548 FILLER_0_22_15
*1549 FILLER_0_22_153
*1550 FILLER_0_22_159
*1551 FILLER_0_22_167
*1552 FILLER_0_22_177
*1553 FILLER_0_22_194
*1554 FILLER_0_22_200
*1555 FILLER_0_22_212
*1556 FILLER_0_22_224
*1557 FILLER_0_22_236
*1558 FILLER_0_22_248
*1559 FILLER_0_22_253
*1560 FILLER_0_22_265
*1561 FILLER_0_22_27
*1562 FILLER_0_22_271
*1563 FILLER_0_22_280
*1564 FILLER_0_22_29
*1565 FILLER_0_22_292
*1566 FILLER_0_22_3
*1567 FILLER_0_22_304
*1568 FILLER_0_22_309
*1569 FILLER_0_22_321
*1570 FILLER_0_22_333
*1571 FILLER_0_22_41
*1572 FILLER_0_22_53
*1573 FILLER_0_22_65
*1574 FILLER_0_22_77
*1575 FILLER_0_22_83
*1576 FILLER_0_22_85
*1577 FILLER_0_22_97
*1578 FILLER_0_23_105
*1579 FILLER_0_23_111
*1580 FILLER_0_23_113
*1581 FILLER_0_23_125
*1582 FILLER_0_23_137
*1583 FILLER_0_23_145
*1584 FILLER_0_23_15
*1585 FILLER_0_23_180
*1586 FILLER_0_23_196
*1587 FILLER_0_23_208
*1588 FILLER_0_23_220
*1589 FILLER_0_23_225
*1590 FILLER_0_23_237
*1591 FILLER_0_23_249
*1592 FILLER_0_23_27
*1593 FILLER_0_23_277
*1594 FILLER_0_23_298
*1595 FILLER_0_23_3
*1596 FILLER_0_23_310
*1597 FILLER_0_23_322
*1598 FILLER_0_23_334
*1599 FILLER_0_23_39
*1600 FILLER_0_23_51
*1601 FILLER_0_23_55
*1602 FILLER_0_23_57
*1603 FILLER_0_23_69
*1604 FILLER_0_23_81
*1605 FILLER_0_23_93
*1606 FILLER_0_24_109
*1607 FILLER_0_24_121
*1608 FILLER_0_24_133
*1609 FILLER_0_24_139
*1610 FILLER_0_24_141
*1611 FILLER_0_24_15
*1612 FILLER_0_24_193
*1613 FILLER_0_24_203
*1614 FILLER_0_24_215
*1615 FILLER_0_24_227
*1616 FILLER_0_24_239
*1617 FILLER_0_24_243
*1618 FILLER_0_24_27
*1619 FILLER_0_24_278
*1620 FILLER_0_24_285
*1621 FILLER_0_24_29
*1622 FILLER_0_24_294
*1623 FILLER_0_24_3
*1624 FILLER_0_24_306
*1625 FILLER_0_24_309
*1626 FILLER_0_24_321
*1627 FILLER_0_24_333
*1628 FILLER_0_24_41
*1629 FILLER_0_24_53
*1630 FILLER_0_24_65
*1631 FILLER_0_24_77
*1632 FILLER_0_24_83
*1633 FILLER_0_24_85
*1634 FILLER_0_24_97
*1635 FILLER_0_25_105
*1636 FILLER_0_25_111
*1637 FILLER_0_25_113
*1638 FILLER_0_25_125
*1639 FILLER_0_25_137
*1640 FILLER_0_25_145
*1641 FILLER_0_25_15
*1642 FILLER_0_25_154
*1643 FILLER_0_25_183
*1644 FILLER_0_25_187
*1645 FILLER_0_25_194
*1646 FILLER_0_25_215
*1647 FILLER_0_25_223
*1648 FILLER_0_25_225
*1649 FILLER_0_25_233
*1650 FILLER_0_25_238
*1651 FILLER_0_25_250
*1652 FILLER_0_25_257
*1653 FILLER_0_25_27
*1654 FILLER_0_25_270
*1655 FILLER_0_25_281
*1656 FILLER_0_25_293
*1657 FILLER_0_25_3
*1658 FILLER_0_25_305
*1659 FILLER_0_25_317
*1660 FILLER_0_25_329
*1661 FILLER_0_25_39
*1662 FILLER_0_25_51
*1663 FILLER_0_25_55
*1664 FILLER_0_25_57
*1665 FILLER_0_25_69
*1666 FILLER_0_25_81
*1667 FILLER_0_25_93
*1668 FILLER_0_26_109
*1669 FILLER_0_26_121
*1670 FILLER_0_26_133
*1671 FILLER_0_26_139
*1672 FILLER_0_26_141
*1673 FILLER_0_26_15
*1674 FILLER_0_26_153
*1675 FILLER_0_26_157
*1676 FILLER_0_26_168
*1677 FILLER_0_26_179
*1678 FILLER_0_26_187
*1679 FILLER_0_26_195
*1680 FILLER_0_26_197
*1681 FILLER_0_26_205
*1682 FILLER_0_26_223
*1683 FILLER_0_26_250
*1684 FILLER_0_26_253
*1685 FILLER_0_26_27
*1686 FILLER_0_26_29
*1687 FILLER_0_26_292
*1688 FILLER_0_26_3
*1689 FILLER_0_26_304
*1690 FILLER_0_26_309
*1691 FILLER_0_26_321
*1692 FILLER_0_26_333
*1693 FILLER_0_26_41
*1694 FILLER_0_26_53
*1695 FILLER_0_26_65
*1696 FILLER_0_26_77
*1697 FILLER_0_26_83
*1698 FILLER_0_26_85
*1699 FILLER_0_26_97
*1700 FILLER_0_27_105
*1701 FILLER_0_27_111
*1702 FILLER_0_27_113
*1703 FILLER_0_27_125
*1704 FILLER_0_27_137
*1705 FILLER_0_27_149
*1706 FILLER_0_27_15
*1707 FILLER_0_27_157
*1708 FILLER_0_27_165
*1709 FILLER_0_27_169
*1710 FILLER_0_27_174
*1711 FILLER_0_27_189
*1712 FILLER_0_27_201
*1713 FILLER_0_27_213
*1714 FILLER_0_27_222
*1715 FILLER_0_27_241
*1716 FILLER_0_27_253
*1717 FILLER_0_27_265
*1718 FILLER_0_27_27
*1719 FILLER_0_27_277
*1720 FILLER_0_27_3
*1721 FILLER_0_27_307
*1722 FILLER_0_27_319
*1723 FILLER_0_27_331
*1724 FILLER_0_27_39
*1725 FILLER_0_27_51
*1726 FILLER_0_27_55
*1727 FILLER_0_27_57
*1728 FILLER_0_27_69
*1729 FILLER_0_27_81
*1730 FILLER_0_27_93
*1731 FILLER_0_28_109
*1732 FILLER_0_28_121
*1733 FILLER_0_28_133
*1734 FILLER_0_28_139
*1735 FILLER_0_28_141
*1736 FILLER_0_28_15
*1737 FILLER_0_28_153
*1738 FILLER_0_28_174
*1739 FILLER_0_28_195
*1740 FILLER_0_28_208
*1741 FILLER_0_28_216
*1742 FILLER_0_28_224
*1743 FILLER_0_28_229
*1744 FILLER_0_28_241
*1745 FILLER_0_28_269
*1746 FILLER_0_28_27
*1747 FILLER_0_28_281
*1748 FILLER_0_28_29
*1749 FILLER_0_28_3
*1750 FILLER_0_28_312
*1751 FILLER_0_28_324
*1752 FILLER_0_28_332
*1753 FILLER_0_28_41
*1754 FILLER_0_28_53
*1755 FILLER_0_28_65
*1756 FILLER_0_28_77
*1757 FILLER_0_28_83
*1758 FILLER_0_28_85
*1759 FILLER_0_28_97
*1760 FILLER_0_29_105
*1761 FILLER_0_29_111