* NGSPICE file created from tt_um_jimktrains_vslc.ext - technology: sky130A

* Black-box entry subcircuit for sky130_fd_sc_hd__fill_2 abstract view
.subckt sky130_fd_sc_hd__fill_2 VGND VNB VPB VPWR
.ends

* Black-box entry subcircuit for sky130_fd_sc_hd__tapvpwrvgnd_1 abstract view
.subckt sky130_fd_sc_hd__tapvpwrvgnd_1 VGND VPWR
.ends

* Black-box entry subcircuit for sky130_ef_sc_hd__decap_12 abstract view
.subckt sky130_ef_sc_hd__decap_12 VPWR VGND VPB VNB
.ends

* Black-box entry subcircuit for sky130_fd_sc_hd__fill_1 abstract view
.subckt sky130_fd_sc_hd__fill_1 VGND VNB VPB VPWR
.ends

* Black-box entry subcircuit for sky130_fd_sc_hd__decap_3 abstract view
.subckt sky130_fd_sc_hd__decap_3 VGND VNB VPB VPWR
.ends

* Black-box entry subcircuit for sky130_fd_sc_hd__inv_2 abstract view
.subckt sky130_fd_sc_hd__inv_2 A VGND VNB VPB VPWR Y
.ends

* Black-box entry subcircuit for sky130_fd_sc_hd__or2_1 abstract view
.subckt sky130_fd_sc_hd__or2_1 A B VGND VNB VPB VPWR X
.ends

* Black-box entry subcircuit for sky130_fd_sc_hd__a21oi_1 abstract view
.subckt sky130_fd_sc_hd__a21oi_1 A1 A2 B1 VGND VNB VPB VPWR Y
.ends

* Black-box entry subcircuit for sky130_fd_sc_hd__dfxtp_1 abstract view
.subckt sky130_fd_sc_hd__dfxtp_1 CLK D VGND VNB VPB VPWR Q
.ends

* Black-box entry subcircuit for sky130_fd_sc_hd__nand2_1 abstract view
.subckt sky130_fd_sc_hd__nand2_1 A B VGND VNB VPB VPWR Y
.ends

* Black-box entry subcircuit for sky130_fd_sc_hd__a211o_1 abstract view
.subckt sky130_fd_sc_hd__a211o_1 A1 A2 B1 C1 VGND VNB VPB VPWR X
.ends

* Black-box entry subcircuit for sky130_fd_sc_hd__and2_1 abstract view
.subckt sky130_fd_sc_hd__and2_1 A B VGND VNB VPB VPWR X
.ends

* Black-box entry subcircuit for sky130_fd_sc_hd__clkbuf_8 abstract view
.subckt sky130_fd_sc_hd__clkbuf_8 A VGND VNB VPB VPWR X
.ends

* Black-box entry subcircuit for sky130_fd_sc_hd__a32o_1 abstract view
.subckt sky130_fd_sc_hd__a32o_1 A1 A2 A3 B1 B2 VGND VNB VPB VPWR X
.ends

* Black-box entry subcircuit for sky130_fd_sc_hd__decap_4 abstract view
.subckt sky130_fd_sc_hd__decap_4 VGND VNB VPB VPWR
.ends

* Black-box entry subcircuit for sky130_fd_sc_hd__mux4_1 abstract view
.subckt sky130_fd_sc_hd__mux4_1 A0 A1 A2 A3 S0 S1 VGND VNB VPB VPWR X
.ends

* Black-box entry subcircuit for sky130_fd_sc_hd__o211a_1 abstract view
.subckt sky130_fd_sc_hd__o211a_1 A1 A2 B1 C1 VGND VNB VPB VPWR X
.ends

* Black-box entry subcircuit for sky130_fd_sc_hd__mux2_1 abstract view
.subckt sky130_fd_sc_hd__mux2_1 A0 A1 S VGND VNB VPB VPWR X
.ends

* Black-box entry subcircuit for sky130_fd_sc_hd__o22a_1 abstract view
.subckt sky130_fd_sc_hd__o22a_1 A1 A2 B1 B2 VGND VNB VPB VPWR X
.ends

* Black-box entry subcircuit for sky130_fd_sc_hd__decap_6 abstract view
.subckt sky130_fd_sc_hd__decap_6 VGND VNB VPB VPWR
.ends

* Black-box entry subcircuit for sky130_fd_sc_hd__decap_8 abstract view
.subckt sky130_fd_sc_hd__decap_8 VGND VNB VPB VPWR
.ends

* Black-box entry subcircuit for sky130_fd_sc_hd__a21o_1 abstract view
.subckt sky130_fd_sc_hd__a21o_1 A1 A2 B1 VGND VNB VPB VPWR X
.ends

* Black-box entry subcircuit for sky130_fd_sc_hd__dlygate4sd3_1 abstract view
.subckt sky130_fd_sc_hd__dlygate4sd3_1 A VGND VNB VPB VPWR X
.ends

* Black-box entry subcircuit for sky130_fd_sc_hd__and2b_1 abstract view
.subckt sky130_fd_sc_hd__and2b_1 A_N B VGND VNB VPB VPWR X
.ends

* Black-box entry subcircuit for sky130_fd_sc_hd__o21ai_1 abstract view
.subckt sky130_fd_sc_hd__o21ai_1 A1 A2 B1 VGND VNB VPB VPWR Y
.ends

* Black-box entry subcircuit for sky130_fd_sc_hd__a21boi_1 abstract view
.subckt sky130_fd_sc_hd__a21boi_1 A1 A2 B1_N VGND VNB VPB VPWR Y
.ends

* Black-box entry subcircuit for sky130_fd_sc_hd__and4_1 abstract view
.subckt sky130_fd_sc_hd__and4_1 A B C D VGND VNB VPB VPWR X
.ends

* Black-box entry subcircuit for sky130_fd_sc_hd__or4_1 abstract view
.subckt sky130_fd_sc_hd__or4_1 A B C D VGND VNB VPB VPWR X
.ends

* Black-box entry subcircuit for sky130_fd_sc_hd__nor2_1 abstract view
.subckt sky130_fd_sc_hd__nor2_1 A B VGND VNB VPB VPWR Y
.ends

* Black-box entry subcircuit for sky130_fd_sc_hd__a21oi_2 abstract view
.subckt sky130_fd_sc_hd__a21oi_2 A1 A2 B1 VGND VNB VPB VPWR Y
.ends

* Black-box entry subcircuit for sky130_fd_sc_hd__dfxtp_2 abstract view
.subckt sky130_fd_sc_hd__dfxtp_2 CLK D VGND VNB VPB VPWR Q
.ends

* Black-box entry subcircuit for sky130_fd_sc_hd__and3b_1 abstract view
.subckt sky130_fd_sc_hd__and3b_1 A_N B C VGND VNB VPB VPWR X
.ends

* Black-box entry subcircuit for sky130_fd_sc_hd__and3_1 abstract view
.subckt sky130_fd_sc_hd__and3_1 A B C VGND VNB VPB VPWR X
.ends

* Black-box entry subcircuit for sky130_fd_sc_hd__o22ai_1 abstract view
.subckt sky130_fd_sc_hd__o22ai_1 A1 A2 B1 B2 VGND VNB VPB VPWR Y
.ends

* Black-box entry subcircuit for sky130_fd_sc_hd__o221a_1 abstract view
.subckt sky130_fd_sc_hd__o221a_1 A1 A2 B1 B2 C1 VGND VNB VPB VPWR X
.ends

* Black-box entry subcircuit for sky130_fd_sc_hd__a31o_1 abstract view
.subckt sky130_fd_sc_hd__a31o_1 A1 A2 A3 B1 VGND VNB VPB VPWR X
.ends

* Black-box entry subcircuit for sky130_fd_sc_hd__a221o_1 abstract view
.subckt sky130_fd_sc_hd__a221o_1 A1 A2 B1 B2 C1 VGND VNB VPB VPWR X
.ends

* Black-box entry subcircuit for sky130_fd_sc_hd__nand3_1 abstract view
.subckt sky130_fd_sc_hd__nand3_1 A B C VGND VNB VPB VPWR Y
.ends

* Black-box entry subcircuit for sky130_fd_sc_hd__a22o_1 abstract view
.subckt sky130_fd_sc_hd__a22o_1 A1 A2 B1 B2 VGND VNB VPB VPWR X
.ends

* Black-box entry subcircuit for sky130_fd_sc_hd__inv_4 abstract view
.subckt sky130_fd_sc_hd__inv_4 A VGND VNB VPB VPWR Y
.ends

* Black-box entry subcircuit for sky130_fd_sc_hd__clkbuf_2 abstract view
.subckt sky130_fd_sc_hd__clkbuf_2 A VGND VNB VPB VPWR X
.ends

* Black-box entry subcircuit for sky130_fd_sc_hd__inv_6 abstract view
.subckt sky130_fd_sc_hd__inv_6 A VGND VNB VPB VPWR Y
.ends

* Black-box entry subcircuit for sky130_fd_sc_hd__nor2_2 abstract view
.subckt sky130_fd_sc_hd__nor2_2 A B VGND VNB VPB VPWR Y
.ends

* Black-box entry subcircuit for sky130_fd_sc_hd__or3_1 abstract view
.subckt sky130_fd_sc_hd__or3_1 A B C VGND VNB VPB VPWR X
.ends

* Black-box entry subcircuit for sky130_fd_sc_hd__buf_1 abstract view
.subckt sky130_fd_sc_hd__buf_1 A VGND VNB VPB VPWR X
.ends

* Black-box entry subcircuit for sky130_fd_sc_hd__nor3_2 abstract view
.subckt sky130_fd_sc_hd__nor3_2 A B C VGND VNB VPB VPWR Y
.ends

* Black-box entry subcircuit for sky130_fd_sc_hd__clkbuf_16 abstract view
.subckt sky130_fd_sc_hd__clkbuf_16 A VGND VNB VPB VPWR X
.ends

* Black-box entry subcircuit for sky130_fd_sc_hd__xnor2_1 abstract view
.subckt sky130_fd_sc_hd__xnor2_1 A B VGND VNB VPB VPWR Y
.ends

* Black-box entry subcircuit for sky130_fd_sc_hd__clkinv_4 abstract view
.subckt sky130_fd_sc_hd__clkinv_4 A VGND VNB VPB VPWR Y
.ends

* Black-box entry subcircuit for sky130_fd_sc_hd__and2b_2 abstract view
.subckt sky130_fd_sc_hd__and2b_2 A_N B VGND VNB VPB VPWR X
.ends

* Black-box entry subcircuit for sky130_fd_sc_hd__buf_2 abstract view
.subckt sky130_fd_sc_hd__buf_2 A VGND VNB VPB VPWR X
.ends

* Black-box entry subcircuit for sky130_fd_sc_hd__clkbuf_4 abstract view
.subckt sky130_fd_sc_hd__clkbuf_4 A VGND VNB VPB VPWR X
.ends

* Black-box entry subcircuit for sky130_fd_sc_hd__or4b_1 abstract view
.subckt sky130_fd_sc_hd__or4b_1 A B C D_N VGND VNB VPB VPWR X
.ends

* Black-box entry subcircuit for sky130_fd_sc_hd__o31ai_4 abstract view
.subckt sky130_fd_sc_hd__o31ai_4 A1 A2 A3 B1 VGND VNB VPB VPWR Y
.ends

* Black-box entry subcircuit for sky130_fd_sc_hd__a2bb2o_1 abstract view
.subckt sky130_fd_sc_hd__a2bb2o_1 A1_N A2_N B1 B2 VGND VNB VPB VPWR X
.ends

* Black-box entry subcircuit for sky130_fd_sc_hd__or4bb_1 abstract view
.subckt sky130_fd_sc_hd__or4bb_1 A B C_N D_N VGND VNB VPB VPWR X
.ends

* Black-box entry subcircuit for sky130_fd_sc_hd__a2111o_1 abstract view
.subckt sky130_fd_sc_hd__a2111o_1 A1 A2 B1 C1 D1 VGND VNB VPB VPWR X
.ends

* Black-box entry subcircuit for sky130_fd_sc_hd__or3b_4 abstract view
.subckt sky130_fd_sc_hd__or3b_4 A B C_N VGND VNB VPB VPWR X
.ends

* Black-box entry subcircuit for sky130_fd_sc_hd__o2111ai_1 abstract view
.subckt sky130_fd_sc_hd__o2111ai_1 A1 A2 B1 C1 D1 VGND VNB VPB VPWR Y
.ends

* Black-box entry subcircuit for sky130_fd_sc_hd__or3_2 abstract view
.subckt sky130_fd_sc_hd__or3_2 A B C VGND VNB VPB VPWR X
.ends

* Black-box entry subcircuit for sky130_fd_sc_hd__and4bb_2 abstract view
.subckt sky130_fd_sc_hd__and4bb_2 A_N B_N C D VGND VNB VPB VPWR X
.ends

* Black-box entry subcircuit for sky130_fd_sc_hd__xor2_1 abstract view
.subckt sky130_fd_sc_hd__xor2_1 A B VGND VNB VPB VPWR X
.ends

* Black-box entry subcircuit for sky130_fd_sc_hd__nor2_4 abstract view
.subckt sky130_fd_sc_hd__nor2_4 A B VGND VNB VPB VPWR Y
.ends

* Black-box entry subcircuit for sky130_fd_sc_hd__o21a_1 abstract view
.subckt sky130_fd_sc_hd__o21a_1 A1 A2 B1 VGND VNB VPB VPWR X
.ends

* Black-box entry subcircuit for sky130_fd_sc_hd__dlymetal6s2s_1 abstract view
.subckt sky130_fd_sc_hd__dlymetal6s2s_1 A VGND VNB VPB VPWR X
.ends

* Black-box entry subcircuit for sky130_fd_sc_hd__nand2b_1 abstract view
.subckt sky130_fd_sc_hd__nand2b_1 A_N B VGND VNB VPB VPWR Y
.ends

* Black-box entry subcircuit for sky130_fd_sc_hd__inv_8 abstract view
.subckt sky130_fd_sc_hd__inv_8 A VGND VNB VPB VPWR Y
.ends

* Black-box entry subcircuit for sky130_fd_sc_hd__a221oi_1 abstract view
.subckt sky130_fd_sc_hd__a221oi_1 A1 A2 B1 B2 C1 VGND VNB VPB VPWR Y
.ends

* Black-box entry subcircuit for sky130_fd_sc_hd__clkbuf_1 abstract view
.subckt sky130_fd_sc_hd__clkbuf_1 A VGND VNB VPB VPWR X
.ends

* Black-box entry subcircuit for sky130_fd_sc_hd__or2_2 abstract view
.subckt sky130_fd_sc_hd__or2_2 A B VGND VNB VPB VPWR X
.ends

* Black-box entry subcircuit for sky130_fd_sc_hd__nor3_1 abstract view
.subckt sky130_fd_sc_hd__nor3_1 A B C VGND VNB VPB VPWR Y
.ends

* Black-box entry subcircuit for sky130_fd_sc_hd__nor3b_1 abstract view
.subckt sky130_fd_sc_hd__nor3b_1 A B C_N VGND VNB VPB VPWR Y
.ends

* Black-box entry subcircuit for sky130_fd_sc_hd__a21o_2 abstract view
.subckt sky130_fd_sc_hd__a21o_2 A1 A2 B1 VGND VNB VPB VPWR X
.ends

* Black-box entry subcircuit for sky130_fd_sc_hd__o41a_1 abstract view
.subckt sky130_fd_sc_hd__o41a_1 A1 A2 A3 A4 B1 VGND VNB VPB VPWR X
.ends

* Black-box entry subcircuit for sky130_fd_sc_hd__a21bo_1 abstract view
.subckt sky130_fd_sc_hd__a21bo_1 A1 A2 B1_N VGND VNB VPB VPWR X
.ends

* Black-box entry subcircuit for sky130_fd_sc_hd__nor3b_4 abstract view
.subckt sky130_fd_sc_hd__nor3b_4 A B C_N VGND VNB VPB VPWR Y
.ends

* Black-box entry subcircuit for sky130_fd_sc_hd__conb_1 abstract view
.subckt sky130_fd_sc_hd__conb_1 VGND VNB VPB VPWR HI LO
.ends

* Black-box entry subcircuit for sky130_fd_sc_hd__o21ai_2 abstract view
.subckt sky130_fd_sc_hd__o21ai_2 A1 A2 B1 VGND VNB VPB VPWR Y
.ends

* Black-box entry subcircuit for sky130_fd_sc_hd__nand2_2 abstract view
.subckt sky130_fd_sc_hd__nand2_2 A B VGND VNB VPB VPWR Y
.ends

* Black-box entry subcircuit for sky130_fd_sc_hd__dfxtp_4 abstract view
.subckt sky130_fd_sc_hd__dfxtp_4 CLK D VGND VNB VPB VPWR Q
.ends

* Black-box entry subcircuit for sky130_fd_sc_hd__nand2b_2 abstract view
.subckt sky130_fd_sc_hd__nand2b_2 A_N B VGND VNB VPB VPWR Y
.ends

* Black-box entry subcircuit for sky130_fd_sc_hd__o311a_1 abstract view
.subckt sky130_fd_sc_hd__o311a_1 A1 A2 A3 B1 C1 VGND VNB VPB VPWR X
.ends

* Black-box entry subcircuit for sky130_fd_sc_hd__and2_2 abstract view
.subckt sky130_fd_sc_hd__and2_2 A B VGND VNB VPB VPWR X
.ends

* Black-box entry subcircuit for sky130_fd_sc_hd__o21ba_1 abstract view
.subckt sky130_fd_sc_hd__o21ba_1 A1 A2 B1_N VGND VNB VPB VPWR X
.ends

* Black-box entry subcircuit for sky130_fd_sc_hd__nand4_1 abstract view
.subckt sky130_fd_sc_hd__nand4_1 A B C D VGND VNB VPB VPWR Y
.ends

* Black-box entry subcircuit for sky130_fd_sc_hd__and4bb_1 abstract view
.subckt sky130_fd_sc_hd__and4bb_1 A_N B_N C D VGND VNB VPB VPWR X
.ends

* Black-box entry subcircuit for sky130_fd_sc_hd__a2bb2o_2 abstract view
.subckt sky130_fd_sc_hd__a2bb2o_2 A1_N A2_N B1 B2 VGND VNB VPB VPWR X
.ends

* Black-box entry subcircuit for sky130_fd_sc_hd__o221a_2 abstract view
.subckt sky130_fd_sc_hd__o221a_2 A1 A2 B1 B2 C1 VGND VNB VPB VPWR X
.ends

* Black-box entry subcircuit for sky130_fd_sc_hd__or3b_1 abstract view
.subckt sky130_fd_sc_hd__or3b_1 A B C_N VGND VNB VPB VPWR X
.ends

* Black-box entry subcircuit for sky130_fd_sc_hd__o31a_1 abstract view
.subckt sky130_fd_sc_hd__o31a_1 A1 A2 A3 B1 VGND VNB VPB VPWR X
.ends

* Black-box entry subcircuit for sky130_fd_sc_hd__and3_2 abstract view
.subckt sky130_fd_sc_hd__and3_2 A B C VGND VNB VPB VPWR X
.ends

* Black-box entry subcircuit for sky130_fd_sc_hd__nor4b_1 abstract view
.subckt sky130_fd_sc_hd__nor4b_1 A B C D_N VGND VNB VPB VPWR Y
.ends

* Black-box entry subcircuit for sky130_fd_sc_hd__nor3_4 abstract view
.subckt sky130_fd_sc_hd__nor3_4 A B C VGND VNB VPB VPWR Y
.ends

* Black-box entry subcircuit for sky130_fd_sc_hd__nor4_2 abstract view
.subckt sky130_fd_sc_hd__nor4_2 A B C D VGND VNB VPB VPWR Y
.ends

* Black-box entry subcircuit for sky130_fd_sc_hd__a2bb2oi_1 abstract view
.subckt sky130_fd_sc_hd__a2bb2oi_1 A1_N A2_N B1 B2 VGND VNB VPB VPWR Y
.ends

.subckt tt_um_jimktrains_vslc VGND VPWR clk ena rst_n ui_in[0] ui_in[1] ui_in[2] ui_in[3]
+ ui_in[4] ui_in[5] ui_in[6] ui_in[7] uio_in[0] uio_in[1] uio_in[2] uio_in[3] uio_in[4]
+ uio_in[5] uio_in[6] uio_in[7] uio_oe[0] uio_oe[1] uio_oe[2] uio_oe[3] uio_oe[4]
+ uio_oe[5] uio_oe[6] uio_oe[7] uio_out[0] uio_out[1] uio_out[2] uio_out[3] uio_out[4]
+ uio_out[5] uio_out[6] uio_out[7] uo_out[0] uo_out[1] uo_out[2] uo_out[3] uo_out[4]
+ uo_out[5] uo_out[6] uo_out[7]
XFILLER_0_17_233 VGND VGND VPWR VPWR sky130_fd_sc_hd__fill_2
XTAP_TAPCELL_ROW_17_180 VGND VPWR sky130_fd_sc_hd__tapvpwrvgnd_1
XFILLER_0_17_255 VPWR VGND VPWR VGND sky130_ef_sc_hd__decap_12
XFILLER_0_7_70 VGND VGND VPWR VPWR sky130_fd_sc_hd__fill_1
XFILLER_0_4_193 VGND VGND VPWR VPWR sky130_fd_sc_hd__decap_3
XTAP_TAPCELL_ROW_9_137 VGND VPWR sky130_fd_sc_hd__tapvpwrvgnd_1
XFILLER_0_17_288 VPWR VGND VPWR VGND sky130_ef_sc_hd__decap_12
X_1444__138 clkload0/A VGND VGND VPWR VPWR _1596_/CLK sky130_fd_sc_hd__inv_2
XFILLER_0_23_203 VGND VGND VPWR VPWR sky130_fd_sc_hd__fill_2
X_1270_ _1459_/Q _1280_/B VGND VGND VPWR VPWR _1270_/X sky130_fd_sc_hd__or2_1
XFILLER_0_3_39 VPWR VGND VPWR VGND sky130_ef_sc_hd__decap_12
XTAP_TAPCELL_ROW_14_161 VGND VPWR sky130_fd_sc_hd__tapvpwrvgnd_1
X_0985_ hold6/X _0987_/A _0984_/Y VGND VGND VPWR VPWR _1543_/D sky130_fd_sc_hd__a21oi_1
XFILLER_0_14_258 VGND VGND VPWR VPWR sky130_fd_sc_hd__fill_2
XTAP_TAPCELL_ROW_6_118 VGND VPWR sky130_fd_sc_hd__tapvpwrvgnd_1
X_1537_ _1537_/CLK _1537_/D VGND VGND VPWR VPWR hold11/A sky130_fd_sc_hd__dfxtp_1
X_1468_ _1468_/CLK _1468_/D VGND VGND VPWR VPWR hold49/A sky130_fd_sc_hd__dfxtp_1
XTAP_TAPCELL_ROW_20_197 VGND VPWR sky130_fd_sc_hd__tapvpwrvgnd_1
XFILLER_0_18_29 VPWR VGND VPWR VGND sky130_ef_sc_hd__decap_12
XTAP_TAPCELL_ROW_28_242 VGND VPWR sky130_fd_sc_hd__tapvpwrvgnd_1
X_0770_ _1550_/Q _1588_/Q VGND VGND VPWR VPWR _0770_/Y sky130_fd_sc_hd__nand2_1
X_1253_ _1283_/A1 _1252_/X _1251_/X _1287_/C1 VGND VGND VPWR VPWR _1253_/X sky130_fd_sc_hd__a211o_1
X_1184_ _1487_/Q _1131_/C _1123_/Y _1174_/X VGND VGND VPWR VPWR _1184_/X sky130_fd_sc_hd__a211o_1
XFILLER_0_34_309 VGND VGND VPWR VPWR sky130_fd_sc_hd__fill_1
X_0968_ hold17/A _0993_/A VGND VGND VPWR VPWR _0991_/A sky130_fd_sc_hd__and2_1
XFILLER_0_24_83 VGND VGND VPWR VPWR sky130_fd_sc_hd__fill_1
Xclkbuf_4_12_0_clk clkbuf_0_clk/X VGND VGND VPWR VPWR clkload9/A sky130_fd_sc_hd__clkbuf_8
XFILLER_0_6_299 VGND VGND VPWR VPWR sky130_fd_sc_hd__fill_1
XFILLER_0_10_261 VGND VGND VPWR VPWR sky130_fd_sc_hd__fill_1
X_0899_ _0802_/B _1571_/Q _0889_/Y _0889_/B _0734_/A VGND VGND VPWR VPWR _0900_/B
+ sky130_fd_sc_hd__a32o_1
XTAP_TAPCELL_ROW_25_223 VGND VPWR sky130_fd_sc_hd__tapvpwrvgnd_1
XFILLER_0_0_29 VPWR VGND VPWR VGND sky130_ef_sc_hd__decap_12
XFILLER_0_28_158 VGND VGND VPWR VPWR sky130_fd_sc_hd__decap_4
XFILLER_0_28_136 VGND VGND VPWR VPWR sky130_fd_sc_hd__fill_1
X_0822_ _0826_/A _0822_/B VGND VGND VPWR VPWR _1590_/D sky130_fd_sc_hd__and2_1
XFILLER_0_10_85 VGND VGND VPWR VPWR sky130_fd_sc_hd__fill_1
X_1305_ _1459_/Q _1458_/Q _1457_/Q _1471_/Q _1488_/Q _1489_/Q VGND VGND VPWR VPWR
+ _1306_/B sky130_fd_sc_hd__mux4_1
X_1236_ hold49/A _0864_/Y _1281_/B1 _1235_/X VGND VGND VPWR VPWR _1236_/X sky130_fd_sc_hd__o211a_1
X_1098_ _1075_/A _1096_/X _1098_/S VGND VGND VPWR VPWR _1098_/X sky130_fd_sc_hd__mux2_1
X_1167_ _1523_/Q _1109_/A _1165_/X _1166_/X VGND VGND VPWR VPWR _1182_/B sky130_fd_sc_hd__o22a_1
XTAP_TAPCELL_ROW_22_204 VGND VPWR sky130_fd_sc_hd__tapvpwrvgnd_1
XFILLER_0_19_158 VGND VGND VPWR VPWR sky130_fd_sc_hd__decap_6
XFILLER_0_30_334 VGND VGND VPWR VPWR sky130_fd_sc_hd__fill_1
XPHY_EDGE_ROW_8_Left_47 VGND VGND VPWR VPWR sky130_fd_sc_hd__decap_3
XFILLER_0_25_128 VGND VGND VPWR VPWR sky130_fd_sc_hd__decap_8
XFILLER_0_0_217 VGND VGND VPWR VPWR sky130_fd_sc_hd__decap_3
XFILLER_0_8_317 VGND VGND VPWR VPWR sky130_fd_sc_hd__fill_2
X_1021_ _1289_/A _1138_/A _1020_/X _1145_/A VGND VGND VPWR VPWR _1529_/D sky130_fd_sc_hd__o211a_1
X_0805_ _0828_/A _0805_/B VGND VGND VPWR VPWR _1598_/D sky130_fd_sc_hd__and2_1
XFILLER_0_12_312 VPWR VGND VPWR VGND sky130_ef_sc_hd__decap_12
XFILLER_0_21_51 VGND VGND VPWR VPWR sky130_fd_sc_hd__decap_4
X_0736_ _0736_/A VGND VGND VPWR VPWR _1069_/B sky130_fd_sc_hd__inv_2
XFILLER_0_34_3 VGND VGND VPWR VPWR sky130_fd_sc_hd__decap_8
X_1219_ _0859_/B _1528_/Q _1007_/A VGND VGND VPWR VPWR _1219_/X sky130_fd_sc_hd__a21o_1
XFILLER_0_30_197 VPWR VGND VPWR VGND sky130_ef_sc_hd__decap_12
Xhold30 hold30/A VGND VGND VPWR VPWR hold30/X sky130_fd_sc_hd__dlygate4sd3_1
Xhold41 hold41/A VGND VGND VPWR VPWR hold41/X sky130_fd_sc_hd__dlygate4sd3_1
Xhold52 hold52/A VGND VGND VPWR VPWR hold52/X sky130_fd_sc_hd__dlygate4sd3_1
X_1570_ _1570_/CLK _1570_/D VGND VGND VPWR VPWR _1570_/Q sky130_fd_sc_hd__dfxtp_1
XFILLER_0_32_83 VGND VGND VPWR VPWR sky130_fd_sc_hd__fill_1
X_1004_ hold29/A _1004_/B VGND VGND VPWR VPWR _1533_/D sky130_fd_sc_hd__and2b_1
XFILLER_0_35_223 VGND VGND VPWR VPWR sky130_fd_sc_hd__fill_1
X_1553_ _1553_/CLK _1553_/D VGND VGND VPWR VPWR _1553_/Q sky130_fd_sc_hd__dfxtp_1
X_1484_ _1484_/CLK _1484_/D VGND VGND VPWR VPWR _1484_/Q sky130_fd_sc_hd__dfxtp_1
XFILLER_0_17_201 VPWR VGND VPWR VGND sky130_ef_sc_hd__decap_12
XTAP_TAPCELL_ROW_17_181 VGND VPWR sky130_fd_sc_hd__tapvpwrvgnd_1
XFILLER_0_7_82 VPWR VGND VPWR VGND sky130_ef_sc_hd__decap_12
XFILLER_0_4_161 VGND VGND VPWR VPWR sky130_fd_sc_hd__decap_4
XPHY_EDGE_ROW_37_Left_76 VGND VGND VPWR VPWR sky130_fd_sc_hd__decap_3
X_1375__69 _1475_/CLK VGND VGND VPWR VPWR _1527_/CLK sky130_fd_sc_hd__inv_2
XFILLER_0_31_281 VPWR VGND VPWR VGND sky130_ef_sc_hd__decap_12
X_0984_ hold6/X _0987_/A _0983_/B VGND VGND VPWR VPWR _0984_/Y sky130_fd_sc_hd__o21ai_1
XTAP_TAPCELL_ROW_14_162 VGND VPWR sky130_fd_sc_hd__tapvpwrvgnd_1
X_1536_ _1536_/CLK _1536_/D VGND VGND VPWR VPWR _1536_/Q sky130_fd_sc_hd__dfxtp_1
XTAP_TAPCELL_ROW_6_119 VGND VPWR sky130_fd_sc_hd__tapvpwrvgnd_1
X_1467_ _1467_/CLK _1467_/D VGND VGND VPWR VPWR hold42/A sky130_fd_sc_hd__dfxtp_1
XFILLER_0_37_329 VGND VGND VPWR VPWR sky130_fd_sc_hd__decap_6
XTAP_TAPCELL_ROW_37_287 VGND VPWR sky130_fd_sc_hd__tapvpwrvgnd_1
XTAP_TAPCELL_ROW_20_198 VGND VPWR sky130_fd_sc_hd__tapvpwrvgnd_1
X_1411__105 clkload0/A VGND VGND VPWR VPWR _1563_/CLK sky130_fd_sc_hd__inv_2
XFILLER_0_13_281 VGND VGND VPWR VPWR sky130_fd_sc_hd__fill_2
XFILLER_0_18_19 VGND VGND VPWR VPWR sky130_fd_sc_hd__fill_2
XFILLER_0_11_229 VGND VGND VPWR VPWR sky130_fd_sc_hd__fill_1
X_1252_ hold37/A _1463_/Q _1277_/S VGND VGND VPWR VPWR _1252_/X sky130_fd_sc_hd__mux2_1
X_1183_ _1072_/A _1182_/X _1168_/A VGND VGND VPWR VPWR _1183_/Y sky130_fd_sc_hd__a21boi_1
X_0967_ hold11/A _1538_/Q hold9/A _0967_/D VGND VGND VPWR VPWR _0993_/A sky130_fd_sc_hd__and4_1
X_0898_ _0915_/A _0898_/B VGND VGND VPWR VPWR _1572_/D sky130_fd_sc_hd__and2_1
XPHY_EDGE_ROW_12_Right_12 VGND VGND VPWR VPWR sky130_fd_sc_hd__decap_3
X_1519_ _1519_/CLK _1519_/D VGND VGND VPWR VPWR _1519_/Q sky130_fd_sc_hd__dfxtp_1
XFILLER_0_4_61 VGND VGND VPWR VPWR sky130_fd_sc_hd__fill_1
XPHY_EDGE_ROW_21_Right_21 VGND VGND VPWR VPWR sky130_fd_sc_hd__decap_3
XFILLER_0_37_137 VGND VGND VPWR VPWR sky130_fd_sc_hd__decap_4
XTAP_TAPCELL_ROW_25_224 VGND VPWR sky130_fd_sc_hd__tapvpwrvgnd_1
XPHY_EDGE_ROW_30_Right_30 VGND VGND VPWR VPWR sky130_fd_sc_hd__decap_3
X_1345__39 clkload8/A VGND VGND VPWR VPWR _1497_/CLK sky130_fd_sc_hd__inv_2
X_0752_ _1600_/Q VGND VGND VPWR VPWR _0752_/Y sky130_fd_sc_hd__inv_2
X_0821_ _0823_/A1 _1590_/Q _0813_/Y _0813_/B _1169_/A VGND VGND VPWR VPWR _0822_/B
+ sky130_fd_sc_hd__a32o_1
XPHY_EDGE_ROW_24_Left_63 VGND VGND VPWR VPWR sky130_fd_sc_hd__decap_3
X_1304_ _1463_/Q _1462_/Q _1461_/Q hold54/A _1488_/Q _1489_/Q VGND VGND VPWR VPWR
+ _1304_/X sky130_fd_sc_hd__mux4_1
XFILLER_0_19_73 VPWR VGND VPWR VGND sky130_ef_sc_hd__decap_12
X_1166_ hold13/A hold24/A hold32/A hold22/A VGND VGND VPWR VPWR _1166_/X sky130_fd_sc_hd__or4_1
X_1235_ hold41/A _1275_/B VGND VGND VPWR VPWR _1235_/X sky130_fd_sc_hd__or2_1
XFILLER_0_34_107 VGND VGND VPWR VPWR sky130_fd_sc_hd__decap_8
X_1097_ uo_out[5] _1097_/B VGND VGND VPWR VPWR _1097_/X sky130_fd_sc_hd__or2_1
XTAP_TAPCELL_ROW_22_205 VGND VPWR sky130_fd_sc_hd__tapvpwrvgnd_1
XFILLER_0_34_118 VPWR VGND VPWR VGND sky130_ef_sc_hd__decap_12
XFILLER_0_15_332 VGND VGND VPWR VPWR sky130_fd_sc_hd__decap_3
X_1417__111 clkload9/A VGND VGND VPWR VPWR _1569_/CLK sky130_fd_sc_hd__inv_2
XFILLER_0_21_302 VGND VGND VPWR VPWR sky130_fd_sc_hd__fill_2
Xclkbuf_4_11_0_clk clkbuf_0_clk/X VGND VGND VPWR VPWR clkload8/A sky130_fd_sc_hd__clkbuf_8
X_1020_ _1020_/A _1030_/B VGND VGND VPWR VPWR _1020_/X sky130_fd_sc_hd__or2_1
X_0804_ _0823_/A1 _1598_/Q _0792_/Y _0792_/A _1169_/A VGND VGND VPWR VPWR _0805_/B
+ sky130_fd_sc_hd__a32o_1
XFILLER_0_12_324 VGND VGND VPWR VPWR sky130_fd_sc_hd__decap_8
X_0735_ _1075_/A VGND VGND VPWR VPWR _1072_/A sky130_fd_sc_hd__inv_2
X_1149_ _1149_/A _1149_/B VGND VGND VPWR VPWR _1149_/Y sky130_fd_sc_hd__nor2_1
X_1218_ _0859_/B _1528_/Q _1007_/A VGND VGND VPWR VPWR _1218_/Y sky130_fd_sc_hd__a21oi_2
XFILLER_0_1_51 VGND VGND VPWR VPWR sky130_fd_sc_hd__decap_4
XFILLER_0_27_3 VPWR VGND VPWR VGND sky130_ef_sc_hd__decap_12
XFILLER_0_15_140 VGND VGND VPWR VPWR sky130_fd_sc_hd__decap_3
XFILLER_0_15_151 VGND VGND VPWR VPWR sky130_fd_sc_hd__fill_1
XFILLER_0_15_184 VGND VGND VPWR VPWR sky130_fd_sc_hd__decap_4
Xhold53 hold53/A VGND VGND VPWR VPWR hold53/X sky130_fd_sc_hd__dlygate4sd3_1
Xhold20 hold20/A VGND VGND VPWR VPWR hold20/X sky130_fd_sc_hd__dlygate4sd3_1
Xhold31 hold31/A VGND VGND VPWR VPWR hold31/X sky130_fd_sc_hd__dlygate4sd3_1
Xhold42 hold42/A VGND VGND VPWR VPWR hold42/X sky130_fd_sc_hd__dlygate4sd3_1
XFILLER_0_38_232 VPWR VGND VPWR VGND sky130_ef_sc_hd__decap_12
XFILLER_0_38_210 VPWR VGND VPWR VGND sky130_ef_sc_hd__decap_12
XFILLER_0_21_110 VGND VGND VPWR VPWR sky130_fd_sc_hd__fill_2
X_1003_ hold29/X _1534_/Q _1002_/Y VGND VGND VPWR VPWR hold30/A sky130_fd_sc_hd__a21oi_1
XFILLER_0_29_243 VGND VGND VPWR VPWR sky130_fd_sc_hd__fill_1
XPHY_EDGE_ROW_6_Right_6 VGND VGND VPWR VPWR sky130_fd_sc_hd__decap_3
XPHY_EDGE_ROW_11_Left_50 VGND VGND VPWR VPWR sky130_fd_sc_hd__decap_3
XFILLER_0_35_279 VGND VGND VPWR VPWR sky130_fd_sc_hd__fill_1
XFILLER_0_35_257 VGND VGND VPWR VPWR sky130_fd_sc_hd__decap_8
XFILLER_0_35_235 VGND VGND VPWR VPWR sky130_fd_sc_hd__fill_1
XFILLER_0_5_129 VPWR VGND VPWR VGND sky130_ef_sc_hd__decap_12
X_1552_ _1552_/CLK _1552_/D VGND VGND VPWR VPWR hold10/A sky130_fd_sc_hd__dfxtp_2
X_1483_ _1483_/CLK input9/X VGND VGND VPWR VPWR _1483_/Q sky130_fd_sc_hd__dfxtp_1
XFILLER_0_32_227 VPWR VGND VPWR VGND sky130_ef_sc_hd__decap_12
XFILLER_0_17_213 VGND VGND VPWR VPWR sky130_fd_sc_hd__decap_8
XFILLER_0_7_94 VPWR VGND VPWR VGND sky130_ef_sc_hd__decap_12
XFILLER_0_7_50 VGND VGND VPWR VPWR sky130_fd_sc_hd__decap_6
XFILLER_0_23_238 VPWR VGND VPWR VGND sky130_ef_sc_hd__decap_12
X_0983_ _0972_/B _0983_/B _0983_/C VGND VGND VPWR VPWR _1544_/D sky130_fd_sc_hd__and3b_1
XFILLER_0_13_42 VGND VGND VPWR VPWR sky130_fd_sc_hd__fill_1
XFILLER_0_13_53 VGND VGND VPWR VPWR sky130_fd_sc_hd__decap_3
XTAP_TAPCELL_ROW_14_163 VGND VPWR sky130_fd_sc_hd__tapvpwrvgnd_1
X_1535_ _1535_/CLK _1535_/D VGND VGND VPWR VPWR _1535_/Q sky130_fd_sc_hd__dfxtp_1
XFILLER_0_38_72 VGND VGND VPWR VPWR sky130_fd_sc_hd__fill_1
X_1466_ _1466_/CLK _1466_/D VGND VGND VPWR VPWR hold41/A sky130_fd_sc_hd__dfxtp_1
XTAP_TAPCELL_ROW_37_288 VGND VPWR sky130_fd_sc_hd__tapvpwrvgnd_1
X_1450__144 _1450__144/A VGND VGND VPWR VPWR _1602_/CLK sky130_fd_sc_hd__inv_2
XTAP_TAPCELL_ROW_11_144 VGND VPWR sky130_fd_sc_hd__tapvpwrvgnd_1
X_1251_ hold37/A _1285_/A2 _1285_/C1 _1250_/X VGND VGND VPWR VPWR _1251_/X sky130_fd_sc_hd__o211a_1
X_1182_ _1182_/A _1182_/B _1182_/C VGND VGND VPWR VPWR _1182_/X sky130_fd_sc_hd__and3_1
XFILLER_0_24_85 VPWR VGND VPWR VGND sky130_ef_sc_hd__decap_12
XFILLER_0_6_213 VGND VGND VPWR VPWR sky130_fd_sc_hd__decap_8
X_0966_ hold11/A _1538_/Q _0967_/D VGND VGND VPWR VPWR _0966_/X sky130_fd_sc_hd__and3_1
X_0897_ _0802_/B _1572_/Q _0889_/Y _0889_/B _1291_/D VGND VGND VPWR VPWR _0898_/B
+ sky130_fd_sc_hd__a32o_1
X_1434__128 clkload2/A VGND VGND VPWR VPWR _1586_/CLK sky130_fd_sc_hd__inv_2
X_1518_ _1518_/CLK _1518_/D VGND VGND VPWR VPWR _1518_/Q sky130_fd_sc_hd__dfxtp_1
XTAP_TAPCELL_ROW_25_225 VGND VPWR sky130_fd_sc_hd__tapvpwrvgnd_1
XFILLER_0_28_127 VGND VGND VPWR VPWR sky130_fd_sc_hd__fill_1
XFILLER_0_36_160 VGND VGND VPWR VPWR sky130_fd_sc_hd__fill_1
X_0751_ _1597_/Q VGND VGND VPWR VPWR _0751_/Y sky130_fd_sc_hd__inv_2
X_0820_ hold31/X _0801_/X _0813_/Y _0813_/B _0800_/A VGND VGND VPWR VPWR _1591_/D
+ sky130_fd_sc_hd__a32o_1
X_1303_ _1292_/B _1301_/Y _1302_/X _1303_/C1 VGND VGND VPWR VPWR _1452_/D sky130_fd_sc_hd__o211a_1
XTAP_TAPCELL_ROW_0_80 VGND VPWR sky130_fd_sc_hd__tapvpwrvgnd_1
X_1096_ _1292_/B uo_out[5] _1096_/S VGND VGND VPWR VPWR _1096_/X sky130_fd_sc_hd__mux2_1
X_1165_ hold19/A hold33/A _1496_/Q hold36/A VGND VGND VPWR VPWR _1165_/X sky130_fd_sc_hd__or4_1
XFILLER_0_19_96 VGND VGND VPWR VPWR sky130_fd_sc_hd__decap_6
X_1234_ hold49/X _1288_/A2 _1233_/X _1284_/C1 VGND VGND VPWR VPWR _1468_/D sky130_fd_sc_hd__o211a_1
XTAP_TAPCELL_ROW_22_206 VGND VPWR sky130_fd_sc_hd__tapvpwrvgnd_1
XTAP_TAPCELL_ROW_30_250 VGND VPWR sky130_fd_sc_hd__tapvpwrvgnd_1
X_0949_ _0946_/X _0949_/B _0963_/B VGND VGND VPWR VPWR _1556_/D sky130_fd_sc_hd__and3b_1
X_1405__99 clkload1/A VGND VGND VPWR VPWR _1557_/CLK sky130_fd_sc_hd__inv_2
XFILLER_0_33_185 VPWR VGND VPWR VGND sky130_ef_sc_hd__decap_12
X_0734_ _0734_/A VGND VGND VPWR VPWR _1024_/A sky130_fd_sc_hd__inv_2
X_0803_ hold18/X _0792_/Y _0801_/X _0800_/A _0792_/A VGND VGND VPWR VPWR _1599_/D
+ sky130_fd_sc_hd__a32o_1
XFILLER_0_24_141 VGND VGND VPWR VPWR sky130_fd_sc_hd__decap_3
X_1079_ _1074_/X _1076_/X _1078_/X _1169_/B VGND VGND VPWR VPWR _1207_/B sky130_fd_sc_hd__o22ai_1
X_1217_ _1471_/Q _1005_/Y _1214_/X _1216_/X _1294_/A VGND VGND VPWR VPWR _1471_/D
+ sky130_fd_sc_hd__o221a_1
X_1148_ hold47/A hold50/A hold52/A hold46/A VGND VGND VPWR VPWR _1149_/B sky130_fd_sc_hd__or4_1
XFILLER_0_30_111 VPWR VGND VPWR VGND sky130_ef_sc_hd__decap_12
Xhold54 hold54/A VGND VGND VPWR VPWR hold54/X sky130_fd_sc_hd__dlygate4sd3_1
Xhold10 hold10/A VGND VGND VPWR VPWR hold10/X sky130_fd_sc_hd__dlygate4sd3_1
Xhold21 hold21/A VGND VGND VPWR VPWR hold21/X sky130_fd_sc_hd__dlygate4sd3_1
Xhold43 hold43/A VGND VGND VPWR VPWR hold43/X sky130_fd_sc_hd__dlygate4sd3_1
Xhold32 hold32/A VGND VGND VPWR VPWR hold32/X sky130_fd_sc_hd__dlygate4sd3_1
XFILLER_0_38_244 VGND VGND VPWR VPWR sky130_fd_sc_hd__decap_8
XFILLER_0_38_222 VGND VGND VPWR VPWR sky130_fd_sc_hd__fill_2
XFILLER_0_21_122 VGND VGND VPWR VPWR sky130_fd_sc_hd__decap_6
X_1002_ hold29/A _1534_/Q _1004_/B VGND VGND VPWR VPWR _1002_/Y sky130_fd_sc_hd__o21ai_1
XFILLER_0_16_42 VGND VGND VPWR VPWR sky130_fd_sc_hd__decap_8
XFILLER_0_32_85 VGND VGND VPWR VPWR sky130_fd_sc_hd__decap_8
XFILLER_0_35_225 VGND VGND VPWR VPWR sky130_fd_sc_hd__fill_1
Xclkbuf_4_10_0_clk clkbuf_0_clk/X VGND VGND VPWR VPWR clkload7/A sky130_fd_sc_hd__clkbuf_8
XFILLER_0_9_3 VGND VGND VPWR VPWR sky130_fd_sc_hd__decap_8
XFILLER_0_26_225 VGND VGND VPWR VPWR sky130_fd_sc_hd__fill_2
X_1482_ _1483_/CLK input8/X VGND VGND VPWR VPWR _1482_/Q sky130_fd_sc_hd__dfxtp_1
X_1551_ _1551_/CLK _1551_/D VGND VGND VPWR VPWR _1551_/Q sky130_fd_sc_hd__dfxtp_1
XFILLER_0_32_239 VGND VGND VPWR VPWR sky130_fd_sc_hd__decap_8
XFILLER_0_4_185 VGND VGND VPWR VPWR sky130_fd_sc_hd__decap_8
XFILLER_0_4_174 VGND VGND VPWR VPWR sky130_fd_sc_hd__fill_1
XFILLER_0_4_141 VGND VGND VPWR VPWR sky130_fd_sc_hd__fill_1
XFILLER_0_23_217 VGND VGND VPWR VPWR sky130_fd_sc_hd__fill_1
X_0982_ hold23/A hold6/A _0989_/A _1544_/Q VGND VGND VPWR VPWR _0983_/C sky130_fd_sc_hd__a31o_1
XTAP_TAPCELL_ROW_14_164 VGND VPWR sky130_fd_sc_hd__tapvpwrvgnd_1
X_1465_ _1465_/CLK _1465_/D VGND VGND VPWR VPWR hold37/A sky130_fd_sc_hd__dfxtp_1
XFILLER_0_1_111 VGND VGND VPWR VPWR sky130_fd_sc_hd__fill_1
XFILLER_0_1_122 VGND VGND VPWR VPWR sky130_fd_sc_hd__fill_1
XFILLER_0_1_155 VPWR VGND VPWR VGND sky130_ef_sc_hd__decap_12
X_1534_ _1534_/CLK hold30/X VGND VGND VPWR VPWR _1534_/Q sky130_fd_sc_hd__dfxtp_1
XFILLER_0_22_250 VGND VGND VPWR VPWR sky130_fd_sc_hd__fill_2
XTAP_TAPCELL_ROW_37_289 VGND VPWR sky130_fd_sc_hd__tapvpwrvgnd_1
XFILLER_0_9_222 VGND VGND VPWR VPWR sky130_fd_sc_hd__fill_2
XFILLER_0_9_299 VGND VGND VPWR VPWR sky130_fd_sc_hd__decap_4
X_1380__74 clkload9/A VGND VGND VPWR VPWR _1532_/CLK sky130_fd_sc_hd__inv_2
XFILLER_0_36_331 VGND VGND VPWR VPWR sky130_fd_sc_hd__decap_4
XTAP_TAPCELL_ROW_11_145 VGND VPWR sky130_fd_sc_hd__tapvpwrvgnd_1
X_1250_ _1463_/Q _1280_/B VGND VGND VPWR VPWR _1250_/X sky130_fd_sc_hd__or2_1
X_1181_ hold38/X _1126_/B _1180_/X _1196_/A VGND VGND VPWR VPWR _1485_/D sky130_fd_sc_hd__o211a_1
XFILLER_0_24_97 VGND VGND VPWR VPWR sky130_fd_sc_hd__fill_2