* NGSPICE file created from tt_um_jimktrains_vslc.ext - technology: sky130A

* Black-box entry subcircuit for sky130_fd_sc_hd__fill_2 abstract view
.subckt sky130_fd_sc_hd__fill_2 VGND VNB VPB VPWR
.ends

* Black-box entry subcircuit for sky130_fd_sc_hd__tapvpwrvgnd_1 abstract view
.subckt sky130_fd_sc_hd__tapvpwrvgnd_1 VGND VPWR
.ends

* Black-box entry subcircuit for sky130_fd_sc_hd__fill_1 abstract view
.subckt sky130_fd_sc_hd__fill_1 VGND VNB VPB VPWR
.ends

* Black-box entry subcircuit for sky130_fd_sc_hd__and2b_1 abstract view
.subckt sky130_fd_sc_hd__and2b_1 A_N B VGND VNB VPB VPWR X
.ends

* Black-box entry subcircuit for sky130_fd_sc_hd__clkbuf_1 abstract view
.subckt sky130_fd_sc_hd__clkbuf_1 A VGND VNB VPB VPWR X
.ends

* Black-box entry subcircuit for sky130_ef_sc_hd__decap_12 abstract view
.subckt sky130_ef_sc_hd__decap_12 VPWR VGND VPB VNB
.ends

* Black-box entry subcircuit for sky130_fd_sc_hd__xnor2_1 abstract view
.subckt sky130_fd_sc_hd__xnor2_1 A B VGND VNB VPB VPWR Y
.ends

* Black-box entry subcircuit for sky130_fd_sc_hd__dfxtp_1 abstract view
.subckt sky130_fd_sc_hd__dfxtp_1 CLK D VGND VNB VPB VPWR Q
.ends

* Black-box entry subcircuit for sky130_fd_sc_hd__inv_2 abstract view
.subckt sky130_fd_sc_hd__inv_2 A VGND VNB VPB VPWR Y
.ends

* Black-box entry subcircuit for sky130_fd_sc_hd__mux2_1 abstract view
.subckt sky130_fd_sc_hd__mux2_1 A0 A1 S VGND VNB VPB VPWR X
.ends

* Black-box entry subcircuit for sky130_fd_sc_hd__or2_1 abstract view
.subckt sky130_fd_sc_hd__or2_1 A B VGND VNB VPB VPWR X
.ends

* Black-box entry subcircuit for sky130_fd_sc_hd__clkbuf_8 abstract view
.subckt sky130_fd_sc_hd__clkbuf_8 A VGND VNB VPB VPWR X
.ends

* Black-box entry subcircuit for sky130_fd_sc_hd__decap_8 abstract view
.subckt sky130_fd_sc_hd__decap_8 VGND VNB VPB VPWR
.ends

* Black-box entry subcircuit for sky130_fd_sc_hd__a32o_1 abstract view
.subckt sky130_fd_sc_hd__a32o_1 A1 A2 A3 B1 B2 VGND VNB VPB VPWR X
.ends

* Black-box entry subcircuit for sky130_fd_sc_hd__a21oi_1 abstract view
.subckt sky130_fd_sc_hd__a21oi_1 A1 A2 B1 VGND VNB VPB VPWR Y
.ends

* Black-box entry subcircuit for sky130_fd_sc_hd__or4_1 abstract view
.subckt sky130_fd_sc_hd__or4_1 A B C D VGND VNB VPB VPWR X
.ends

* Black-box entry subcircuit for sky130_fd_sc_hd__decap_4 abstract view
.subckt sky130_fd_sc_hd__decap_4 VGND VNB VPB VPWR
.ends

* Black-box entry subcircuit for sky130_fd_sc_hd__or4b_1 abstract view
.subckt sky130_fd_sc_hd__or4b_1 A B C D_N VGND VNB VPB VPWR X
.ends

* Black-box entry subcircuit for sky130_fd_sc_hd__a211o_1 abstract view
.subckt sky130_fd_sc_hd__a211o_1 A1 A2 B1 C1 VGND VNB VPB VPWR X
.ends

* Black-box entry subcircuit for sky130_fd_sc_hd__a21o_1 abstract view
.subckt sky130_fd_sc_hd__a21o_1 A1 A2 B1 VGND VNB VPB VPWR X
.ends

* Black-box entry subcircuit for sky130_fd_sc_hd__decap_3 abstract view
.subckt sky130_fd_sc_hd__decap_3 VGND VNB VPB VPWR
.ends

* Black-box entry subcircuit for sky130_fd_sc_hd__and4_1 abstract view
.subckt sky130_fd_sc_hd__and4_1 A B C D VGND VNB VPB VPWR X
.ends

* Black-box entry subcircuit for sky130_fd_sc_hd__a22o_1 abstract view
.subckt sky130_fd_sc_hd__a22o_1 A1 A2 B1 B2 VGND VNB VPB VPWR X
.ends

* Black-box entry subcircuit for sky130_fd_sc_hd__dlygate4sd3_1 abstract view
.subckt sky130_fd_sc_hd__dlygate4sd3_1 A VGND VNB VPB VPWR X
.ends

* Black-box entry subcircuit for sky130_fd_sc_hd__buf_2 abstract view
.subckt sky130_fd_sc_hd__buf_2 A VGND VNB VPB VPWR X
.ends

* Black-box entry subcircuit for sky130_fd_sc_hd__nor2_1 abstract view
.subckt sky130_fd_sc_hd__nor2_1 A B VGND VNB VPB VPWR Y
.ends

* Black-box entry subcircuit for sky130_fd_sc_hd__decap_6 abstract view
.subckt sky130_fd_sc_hd__decap_6 VGND VNB VPB VPWR
.ends

* Black-box entry subcircuit for sky130_fd_sc_hd__o211a_1 abstract view
.subckt sky130_fd_sc_hd__o211a_1 A1 A2 B1 C1 VGND VNB VPB VPWR X
.ends

* Black-box entry subcircuit for sky130_fd_sc_hd__and2_1 abstract view
.subckt sky130_fd_sc_hd__and2_1 A B VGND VNB VPB VPWR X
.ends

* Black-box entry subcircuit for sky130_fd_sc_hd__a21boi_2 abstract view
.subckt sky130_fd_sc_hd__a21boi_2 A1 A2 B1_N VGND VNB VPB VPWR Y
.ends

* Black-box entry subcircuit for sky130_fd_sc_hd__a2bb2o_1 abstract view
.subckt sky130_fd_sc_hd__a2bb2o_1 A1_N A2_N B1 B2 VGND VNB VPB VPWR X
.ends

* Black-box entry subcircuit for sky130_fd_sc_hd__nand2_1 abstract view
.subckt sky130_fd_sc_hd__nand2_1 A B VGND VNB VPB VPWR Y
.ends

* Black-box entry subcircuit for sky130_fd_sc_hd__nand3_1 abstract view
.subckt sky130_fd_sc_hd__nand3_1 A B C VGND VNB VPB VPWR Y
.ends

* Black-box entry subcircuit for sky130_fd_sc_hd__nor2_2 abstract view
.subckt sky130_fd_sc_hd__nor2_2 A B VGND VNB VPB VPWR Y
.ends

* Black-box entry subcircuit for sky130_fd_sc_hd__o22a_1 abstract view
.subckt sky130_fd_sc_hd__o22a_1 A1 A2 B1 B2 VGND VNB VPB VPWR X
.ends

* Black-box entry subcircuit for sky130_fd_sc_hd__and3_1 abstract view
.subckt sky130_fd_sc_hd__and3_1 A B C VGND VNB VPB VPWR X
.ends

* Black-box entry subcircuit for sky130_fd_sc_hd__or3b_1 abstract view
.subckt sky130_fd_sc_hd__or3b_1 A B C_N VGND VNB VPB VPWR X
.ends

* Black-box entry subcircuit for sky130_fd_sc_hd__or3_1 abstract view
.subckt sky130_fd_sc_hd__or3_1 A B C VGND VNB VPB VPWR X
.ends

* Black-box entry subcircuit for sky130_fd_sc_hd__o221a_1 abstract view
.subckt sky130_fd_sc_hd__o221a_1 A1 A2 B1 B2 C1 VGND VNB VPB VPWR X
.ends

* Black-box entry subcircuit for sky130_fd_sc_hd__or4bb_1 abstract view
.subckt sky130_fd_sc_hd__or4bb_1 A B C_N D_N VGND VNB VPB VPWR X
.ends

* Black-box entry subcircuit for sky130_fd_sc_hd__dfxtp_2 abstract view
.subckt sky130_fd_sc_hd__dfxtp_2 CLK D VGND VNB VPB VPWR Q
.ends

* Black-box entry subcircuit for sky130_fd_sc_hd__o211ai_1 abstract view
.subckt sky130_fd_sc_hd__o211ai_1 A1 A2 B1 C1 VGND VNB VPB VPWR Y
.ends

* Black-box entry subcircuit for sky130_fd_sc_hd__and4bb_1 abstract view
.subckt sky130_fd_sc_hd__and4bb_1 A_N B_N C D VGND VNB VPB VPWR X
.ends

* Black-box entry subcircuit for sky130_fd_sc_hd__a21bo_1 abstract view
.subckt sky130_fd_sc_hd__a21bo_1 A1 A2 B1_N VGND VNB VPB VPWR X
.ends

* Black-box entry subcircuit for sky130_fd_sc_hd__a2111o_1 abstract view
.subckt sky130_fd_sc_hd__a2111o_1 A1 A2 B1 C1 D1 VGND VNB VPB VPWR X
.ends

* Black-box entry subcircuit for sky130_fd_sc_hd__o211a_2 abstract view
.subckt sky130_fd_sc_hd__o211a_2 A1 A2 B1 C1 VGND VNB VPB VPWR X
.ends

* Black-box entry subcircuit for sky130_fd_sc_hd__xor2_1 abstract view
.subckt sky130_fd_sc_hd__xor2_1 A B VGND VNB VPB VPWR X
.ends

* Black-box entry subcircuit for sky130_fd_sc_hd__inv_6 abstract view
.subckt sky130_fd_sc_hd__inv_6 A VGND VNB VPB VPWR Y
.ends

* Black-box entry subcircuit for sky130_fd_sc_hd__nand2_2 abstract view
.subckt sky130_fd_sc_hd__nand2_2 A B VGND VNB VPB VPWR Y
.ends

* Black-box entry subcircuit for sky130_fd_sc_hd__inv_4 abstract view
.subckt sky130_fd_sc_hd__inv_4 A VGND VNB VPB VPWR Y
.ends

* Black-box entry subcircuit for sky130_fd_sc_hd__o21ba_1 abstract view
.subckt sky130_fd_sc_hd__o21ba_1 A1 A2 B1_N VGND VNB VPB VPWR X
.ends

* Black-box entry subcircuit for sky130_fd_sc_hd__o21ai_4 abstract view
.subckt sky130_fd_sc_hd__o21ai_4 A1 A2 B1 VGND VNB VPB VPWR Y
.ends

* Black-box entry subcircuit for sky130_fd_sc_hd__nor4_1 abstract view
.subckt sky130_fd_sc_hd__nor4_1 A B C D VGND VNB VPB VPWR Y
.ends

* Black-box entry subcircuit for sky130_fd_sc_hd__o311a_1 abstract view
.subckt sky130_fd_sc_hd__o311a_1 A1 A2 A3 B1 C1 VGND VNB VPB VPWR X
.ends

* Black-box entry subcircuit for sky130_fd_sc_hd__o21a_1 abstract view
.subckt sky130_fd_sc_hd__o21a_1 A1 A2 B1 VGND VNB VPB VPWR X
.ends

* Black-box entry subcircuit for sky130_fd_sc_hd__or3_2 abstract view
.subckt sky130_fd_sc_hd__or3_2 A B C VGND VNB VPB VPWR X
.ends

* Black-box entry subcircuit for sky130_fd_sc_hd__o21ai_1 abstract view
.subckt sky130_fd_sc_hd__o21ai_1 A1 A2 B1 VGND VNB VPB VPWR Y
.ends

* Black-box entry subcircuit for sky130_fd_sc_hd__clkbuf_4 abstract view
.subckt sky130_fd_sc_hd__clkbuf_4 A VGND VNB VPB VPWR X
.ends

* Black-box entry subcircuit for sky130_fd_sc_hd__nand2b_1 abstract view
.subckt sky130_fd_sc_hd__nand2b_1 A_N B VGND VNB VPB VPWR Y
.ends

* Black-box entry subcircuit for sky130_fd_sc_hd__dfxtp_4 abstract view
.subckt sky130_fd_sc_hd__dfxtp_4 CLK D VGND VNB VPB VPWR Q
.ends

* Black-box entry subcircuit for sky130_fd_sc_hd__clkbuf_2 abstract view
.subckt sky130_fd_sc_hd__clkbuf_2 A VGND VNB VPB VPWR X
.ends

* Black-box entry subcircuit for sky130_fd_sc_hd__a31o_1 abstract view
.subckt sky130_fd_sc_hd__a31o_1 A1 A2 A3 B1 VGND VNB VPB VPWR X
.ends

* Black-box entry subcircuit for sky130_fd_sc_hd__nor2_4 abstract view
.subckt sky130_fd_sc_hd__nor2_4 A B VGND VNB VPB VPWR Y
.ends

* Black-box entry subcircuit for sky130_fd_sc_hd__a221o_1 abstract view
.subckt sky130_fd_sc_hd__a221o_1 A1 A2 B1 B2 C1 VGND VNB VPB VPWR X
.ends

* Black-box entry subcircuit for sky130_fd_sc_hd__inv_8 abstract view
.subckt sky130_fd_sc_hd__inv_8 A VGND VNB VPB VPWR Y
.ends

* Black-box entry subcircuit for sky130_fd_sc_hd__mux4_1 abstract view
.subckt sky130_fd_sc_hd__mux4_1 A0 A1 A2 A3 S0 S1 VGND VNB VPB VPWR X
.ends

* Black-box entry subcircuit for sky130_fd_sc_hd__clkbuf_16 abstract view
.subckt sky130_fd_sc_hd__clkbuf_16 A VGND VNB VPB VPWR X
.ends

* Black-box entry subcircuit for sky130_fd_sc_hd__buf_1 abstract view
.subckt sky130_fd_sc_hd__buf_1 A VGND VNB VPB VPWR X
.ends

* Black-box entry subcircuit for sky130_fd_sc_hd__a21boi_1 abstract view
.subckt sky130_fd_sc_hd__a21boi_1 A1 A2 B1_N VGND VNB VPB VPWR Y
.ends

* Black-box entry subcircuit for sky130_fd_sc_hd__or2_2 abstract view
.subckt sky130_fd_sc_hd__or2_2 A B VGND VNB VPB VPWR X
.ends

* Black-box entry subcircuit for sky130_fd_sc_hd__o31ai_1 abstract view
.subckt sky130_fd_sc_hd__o31ai_1 A1 A2 A3 B1 VGND VNB VPB VPWR Y
.ends

* Black-box entry subcircuit for sky130_fd_sc_hd__and3b_1 abstract view
.subckt sky130_fd_sc_hd__and3b_1 A_N B C VGND VNB VPB VPWR X
.ends

* Black-box entry subcircuit for sky130_fd_sc_hd__inv_16 abstract view
.subckt sky130_fd_sc_hd__inv_16 A VGND VNB VPB VPWR Y
.ends

* Black-box entry subcircuit for sky130_fd_sc_hd__clkinv_8 abstract view
.subckt sky130_fd_sc_hd__clkinv_8 A VGND VNB VPB VPWR Y
.ends

* Black-box entry subcircuit for sky130_fd_sc_hd__nor3b_1 abstract view
.subckt sky130_fd_sc_hd__nor3b_1 A B C_N VGND VNB VPB VPWR Y
.ends

* Black-box entry subcircuit for sky130_fd_sc_hd__inv_12 abstract view
.subckt sky130_fd_sc_hd__inv_12 A VGND VNB VPB VPWR Y
.ends

* Black-box entry subcircuit for sky130_fd_sc_hd__a21o_2 abstract view
.subckt sky130_fd_sc_hd__a21o_2 A1 A2 B1 VGND VNB VPB VPWR X
.ends

* Black-box entry subcircuit for sky130_fd_sc_hd__a21oi_2 abstract view
.subckt sky130_fd_sc_hd__a21oi_2 A1 A2 B1 VGND VNB VPB VPWR Y
.ends

* Black-box entry subcircuit for sky130_fd_sc_hd__nor3_4 abstract view
.subckt sky130_fd_sc_hd__nor3_4 A B C VGND VNB VPB VPWR Y
.ends

* Black-box entry subcircuit for sky130_fd_sc_hd__nor3_1 abstract view
.subckt sky130_fd_sc_hd__nor3_1 A B C VGND VNB VPB VPWR Y
.ends

* Black-box entry subcircuit for sky130_fd_sc_hd__or3b_4 abstract view
.subckt sky130_fd_sc_hd__or3b_4 A B C_N VGND VNB VPB VPWR X
.ends

* Black-box entry subcircuit for sky130_fd_sc_hd__or3b_2 abstract view
.subckt sky130_fd_sc_hd__or3b_2 A B C_N VGND VNB VPB VPWR X
.ends

* Black-box entry subcircuit for sky130_fd_sc_hd__o22ai_1 abstract view
.subckt sky130_fd_sc_hd__o22ai_1 A1 A2 B1 B2 VGND VNB VPB VPWR Y
.ends

* Black-box entry subcircuit for sky130_fd_sc_hd__dlymetal6s2s_1 abstract view
.subckt sky130_fd_sc_hd__dlymetal6s2s_1 A VGND VNB VPB VPWR X
.ends

* Black-box entry subcircuit for sky130_fd_sc_hd__and4_2 abstract view
.subckt sky130_fd_sc_hd__and4_2 A B C D VGND VNB VPB VPWR X
.ends

* Black-box entry subcircuit for sky130_fd_sc_hd__a311o_1 abstract view
.subckt sky130_fd_sc_hd__a311o_1 A1 A2 A3 B1 C1 VGND VNB VPB VPWR X
.ends

* Black-box entry subcircuit for sky130_fd_sc_hd__a2bb2o_2 abstract view
.subckt sky130_fd_sc_hd__a2bb2o_2 A1_N A2_N B1 B2 VGND VNB VPB VPWR X
.ends

* Black-box entry subcircuit for sky130_fd_sc_hd__conb_1 abstract view
.subckt sky130_fd_sc_hd__conb_1 VGND VNB VPB VPWR HI LO
.ends

* Black-box entry subcircuit for sky130_fd_sc_hd__and2b_2 abstract view
.subckt sky130_fd_sc_hd__and2b_2 A_N B VGND VNB VPB VPWR X
.ends

* Black-box entry subcircuit for sky130_fd_sc_hd__and4bb_2 abstract view
.subckt sky130_fd_sc_hd__and4bb_2 A_N B_N C D VGND VNB VPB VPWR X
.ends

* Black-box entry subcircuit for sky130_fd_sc_hd__nor3b_2 abstract view
.subckt sky130_fd_sc_hd__nor3b_2 A B C_N VGND VNB VPB VPWR Y
.ends

* Black-box entry subcircuit for sky130_fd_sc_hd__or4_2 abstract view
.subckt sky130_fd_sc_hd__or4_2 A B C D VGND VNB VPB VPWR X
.ends

* Black-box entry subcircuit for sky130_fd_sc_hd__o2bb2a_2 abstract view
.subckt sky130_fd_sc_hd__o2bb2a_2 A1_N A2_N B1 B2 VGND VNB VPB VPWR X
.ends

* Black-box entry subcircuit for sky130_fd_sc_hd__nand2b_2 abstract view
.subckt sky130_fd_sc_hd__nand2b_2 A_N B VGND VNB VPB VPWR Y
.ends

* Black-box entry subcircuit for sky130_fd_sc_hd__and3_2 abstract view
.subckt sky130_fd_sc_hd__and3_2 A B C VGND VNB VPB VPWR X
.ends

* Black-box entry subcircuit for sky130_fd_sc_hd__o31a_1 abstract view
.subckt sky130_fd_sc_hd__o31a_1 A1 A2 A3 B1 VGND VNB VPB VPWR X
.ends

.subckt tt_um_jimktrains_vslc VGND VPWR clk ena rst_n ui_in[0] ui_in[1] ui_in[2] ui_in[3]
+ ui_in[4] ui_in[5] ui_in[6] ui_in[7] uio_in[0] uio_in[1] uio_in[2] uio_in[3] uio_in[4]
+ uio_in[5] uio_in[6] uio_in[7] uio_oe[0] uio_oe[1] uio_oe[2] uio_oe[3] uio_oe[4]
+ uio_oe[5] uio_oe[6] uio_oe[7] uio_out[0] uio_out[1] uio_out[2] uio_out[3] uio_out[4]
+ uio_out[5] uio_out[6] uio_out[7] uo_out[0] uo_out[1] uo_out[2] uo_out[3] uo_out[4]
+ uo_out[5] uo_out[6] uo_out[7]
XFILLER_0_17_233 VGND VGND VPWR VPWR sky130_fd_sc_hd__fill_2
XTAP_TAPCELL_ROW_17_180 VGND VPWR sky130_fd_sc_hd__tapvpwrvgnd_1
XFILLER_0_32_269 VGND VGND VPWR VPWR sky130_fd_sc_hd__fill_2
XTAP_TAPCELL_ROW_9_137 VGND VPWR sky130_fd_sc_hd__tapvpwrvgnd_1
XFILLER_0_23_225 VGND VGND VPWR VPWR sky130_fd_sc_hd__fill_1
X_1270_ _1516_/Q _1270_/B VGND VGND VPWR VPWR _1270_/X sky130_fd_sc_hd__and2b_1
Xwire18 wire18/A VGND VGND VPWR VPWR wire18/X sky130_fd_sc_hd__clkbuf_1
XTAP_TAPCELL_ROW_14_161 VGND VPWR sky130_fd_sc_hd__tapvpwrvgnd_1
XFILLER_0_13_84 VPWR VGND VPWR VGND sky130_ef_sc_hd__decap_12
X_0985_ _1622_/Q _0985_/B VGND VGND VPWR VPWR _0986_/B sky130_fd_sc_hd__xnor2_1
X_1606_ _1606_/CLK _1606_/D VGND VGND VPWR VPWR hold1/A sky130_fd_sc_hd__dfxtp_1
X_1537_ _1541_/CLK input5/X VGND VGND VPWR VPWR _1537_/Q sky130_fd_sc_hd__dfxtp_1
XTAP_TAPCELL_ROW_6_118 VGND VPWR sky130_fd_sc_hd__tapvpwrvgnd_1
XTAP_TAPCELL_ROW_20_197 VGND VPWR sky130_fd_sc_hd__tapvpwrvgnd_1
XTAP_TAPCELL_ROW_28_242 VGND VPWR sky130_fd_sc_hd__tapvpwrvgnd_1
X_1450__86 _1454__90/A VGND VGND VPWR VPWR _1602_/CLK sky130_fd_sc_hd__inv_2
X_0770_ hold18/A VGND VGND VPWR VPWR _0770_/Y sky130_fd_sc_hd__inv_2
X_1253_ hold57/A hold51/A _1547_/Q VGND VGND VPWR VPWR _1253_/X sky130_fd_sc_hd__mux2_1
X_1322_ _1519_/Q _1322_/B VGND VGND VPWR VPWR _1322_/X sky130_fd_sc_hd__or2_1
X_1184_ hold42/X _1550_/Q _1184_/S VGND VGND VPWR VPWR _1550_/D sky130_fd_sc_hd__mux2_1
Xclkbuf_4_12_0_clk clkbuf_0_clk/X VGND VGND VPWR VPWR _1372__8/A sky130_fd_sc_hd__clkbuf_8
XFILLER_0_6_233 VGND VGND VPWR VPWR sky130_fd_sc_hd__decap_8
X_0968_ _0940_/A _1624_/Q _0963_/Y wire17/X _1149_/A VGND VGND VPWR VPWR _0969_/B
+ sky130_fd_sc_hd__a32o_1
X_0899_ hold36/A _0984_/B _1030_/B VGND VGND VPWR VPWR _0899_/Y sky130_fd_sc_hd__a21oi_1
XFILLER_0_6_288 VGND VGND VPWR VPWR sky130_fd_sc_hd__fill_2
XTAP_TAPCELL_ROW_25_223 VGND VPWR sky130_fd_sc_hd__tapvpwrvgnd_1
XFILLER_0_37_169 VGND VGND VPWR VPWR sky130_fd_sc_hd__decap_8
XFILLER_0_0_29 VPWR VGND VPWR VGND sky130_ef_sc_hd__decap_12
X_0822_ _0831_/B _0822_/B _0822_/C _0832_/C VGND VGND VPWR VPWR _0825_/C sky130_fd_sc_hd__or4_1
XFILLER_0_16_309 VGND VGND VPWR VPWR sky130_fd_sc_hd__decap_4
X_1236_ _1236_/A _1236_/B _1236_/C _1130_/D VGND VGND VPWR VPWR _1236_/X sky130_fd_sc_hd__or4b_1
X_1305_ _1178_/S _1304_/X _1303_/X _1276_/X VGND VGND VPWR VPWR _1305_/X sky130_fd_sc_hd__a211o_1
X_1167_ _1201_/B _1352_/A uo_out[6] VGND VGND VPWR VPWR _1167_/X sky130_fd_sc_hd__a21o_1
X_1098_ _1577_/Q _1104_/B VGND VGND VPWR VPWR _1098_/X sky130_fd_sc_hd__or2_1
XFILLER_0_19_125 VPWR VGND VPWR VGND sky130_ef_sc_hd__decap_12
XTAP_TAPCELL_ROW_22_204 VGND VPWR sky130_fd_sc_hd__tapvpwrvgnd_1
XFILLER_0_19_169 VGND VGND VPWR VPWR sky130_fd_sc_hd__fill_1
XPHY_EDGE_ROW_8_Left_47 VGND VGND VPWR VPWR sky130_fd_sc_hd__decap_3
X_1420__56 clkload6/A VGND VGND VPWR VPWR _1572_/CLK sky130_fd_sc_hd__inv_2
X_1021_ hold29/A _1592_/Q _1593_/Q _1594_/Q VGND VGND VPWR VPWR _1023_/D sky130_fd_sc_hd__and4_1
X_0805_ hold37/A _1655_/Q VGND VGND VPWR VPWR _0823_/C sky130_fd_sc_hd__and2b_1
XFILLER_0_21_40 VGND VGND VPWR VPWR sky130_fd_sc_hd__decap_8
XFILLER_0_21_62 VGND VGND VPWR VPWR sky130_fd_sc_hd__decap_4
XFILLER_0_24_194 VGND VGND VPWR VPWR sky130_fd_sc_hd__fill_2
XFILLER_0_34_3 VGND VGND VPWR VPWR sky130_fd_sc_hd__decap_8
X_1219_ _1581_/Q _0766_/Y _1217_/X _1218_/X VGND VGND VPWR VPWR _1221_/B sky130_fd_sc_hd__a22o_1
XFILLER_0_30_120 VGND VGND VPWR VPWR sky130_fd_sc_hd__fill_2
XFILLER_0_15_183 VGND VGND VPWR VPWR sky130_fd_sc_hd__decap_8
Xhold30 hold30/A VGND VGND VPWR VPWR hold30/X sky130_fd_sc_hd__dlygate4sd3_1
Xhold41 hold41/A VGND VGND VPWR VPWR hold41/X sky130_fd_sc_hd__dlygate4sd3_1
Xhold52 hold52/A VGND VGND VPWR VPWR hold52/X sky130_fd_sc_hd__dlygate4sd3_1
XFILLER_0_5_309 VGND VGND VPWR VPWR sky130_fd_sc_hd__fill_1
X_1570_ _1570_/CLK _1570_/D VGND VGND VPWR VPWR hold49/A sky130_fd_sc_hd__dfxtp_1
XFILLER_0_21_120 VGND VGND VPWR VPWR sky130_fd_sc_hd__fill_1
X_1004_ _1614_/Q _1004_/B VGND VGND VPWR VPWR _1005_/B sky130_fd_sc_hd__or2_1
X_1368__4 _1533_/CLK VGND VGND VPWR VPWR _1511_/CLK sky130_fd_sc_hd__inv_2
XFILLER_0_7_191 VGND VGND VPWR VPWR sky130_fd_sc_hd__fill_1
X_1622_ _1622_/CLK _1622_/D VGND VGND VPWR VPWR _1622_/Q sky130_fd_sc_hd__dfxtp_1
X_1553_ _1553_/CLK _1553_/D VGND VGND VPWR VPWR hold3/A sky130_fd_sc_hd__dfxtp_1
X_1456__92 clkload9/A VGND VGND VPWR VPWR _1608_/CLK sky130_fd_sc_hd__inv_2
XFILLER_0_17_267 VGND VGND VPWR VPWR sky130_fd_sc_hd__decap_8
XTAP_TAPCELL_ROW_17_181 VGND VPWR sky130_fd_sc_hd__tapvpwrvgnd_1
XFILLER_0_32_248 VGND VGND VPWR VPWR sky130_fd_sc_hd__fill_1
XPHY_EDGE_ROW_37_Left_76 VGND VGND VPWR VPWR sky130_fd_sc_hd__decap_3
X_1490__126 clkload2/A VGND VGND VPWR VPWR _1642_/CLK sky130_fd_sc_hd__inv_2
Xwire19 wire19/A VGND VGND VPWR VPWR wire19/X sky130_fd_sc_hd__buf_2
X_0984_ _1030_/B _0984_/B VGND VGND VPWR VPWR _0984_/Y sky130_fd_sc_hd__nor2_1
XFILLER_0_13_96 VGND VGND VPWR VPWR sky130_fd_sc_hd__decap_4
XTAP_TAPCELL_ROW_14_162 VGND VPWR sky130_fd_sc_hd__tapvpwrvgnd_1
X_1536_ _1541_/CLK input4/X VGND VGND VPWR VPWR _1536_/Q sky130_fd_sc_hd__dfxtp_1
X_1605_ _1605_/CLK _1605_/D VGND VGND VPWR VPWR _1605_/Q sky130_fd_sc_hd__dfxtp_1
X_1381__17 clkload13/A VGND VGND VPWR VPWR _1524_/CLK sky130_fd_sc_hd__inv_2
XTAP_TAPCELL_ROW_6_119 VGND VPWR sky130_fd_sc_hd__tapvpwrvgnd_1
XTAP_TAPCELL_ROW_37_287 VGND VPWR sky130_fd_sc_hd__tapvpwrvgnd_1
XTAP_TAPCELL_ROW_20_198 VGND VPWR sky130_fd_sc_hd__tapvpwrvgnd_1
XFILLER_0_13_292 VGND VGND VPWR VPWR sky130_fd_sc_hd__decap_6
X_1321_ _1521_/Q _1345_/A2 _1320_/X _1336_/C1 VGND VGND VPWR VPWR _1521_/D sky130_fd_sc_hd__o211a_1
X_1252_ hold45/A hold56/A _1547_/Q VGND VGND VPWR VPWR _1252_/X sky130_fd_sc_hd__mux2_1
XFILLER_0_19_329 VGND VGND VPWR VPWR sky130_fd_sc_hd__decap_6
X_1183_ _1188_/A hold55/X _1184_/S VGND VGND VPWR VPWR _1551_/D sky130_fd_sc_hd__mux2_1
XFILLER_0_6_256 VPWR VGND VPWR VGND sky130_ef_sc_hd__decap_12
X_0967_ _0971_/A _0967_/B VGND VGND VPWR VPWR _1625_/D sky130_fd_sc_hd__and2_1
X_1426__62 clkload2/A VGND VGND VPWR VPWR _1578_/CLK sky130_fd_sc_hd__inv_2
X_1519_ _1519_/CLK _1519_/D VGND VGND VPWR VPWR _1519_/Q sky130_fd_sc_hd__dfxtp_1
X_0898_ _1248_/A _0897_/X _1030_/A VGND VGND VPWR VPWR _0984_/B sky130_fd_sc_hd__a21boi_2
XPHY_EDGE_ROW_12_Right_12 VGND VGND VPWR VPWR sky130_fd_sc_hd__decap_3
XPHY_EDGE_ROW_21_Right_21 VGND VGND VPWR VPWR sky130_fd_sc_hd__decap_3
XFILLER_0_37_159 VGND VGND VPWR VPWR sky130_fd_sc_hd__decap_8
XTAP_TAPCELL_ROW_25_224 VGND VPWR sky130_fd_sc_hd__tapvpwrvgnd_1
XPHY_EDGE_ROW_30_Right_30 VGND VGND VPWR VPWR sky130_fd_sc_hd__decap_3
XFILLER_0_36_192 VGND VGND VPWR VPWR sky130_fd_sc_hd__decap_4
X_0821_ _0757_/Y _1655_/Q _1611_/Q _0807_/B VGND VGND VPWR VPWR _0832_/C sky130_fd_sc_hd__a2bb2o_1
X_1496__132 clkload10/A VGND VGND VPWR VPWR _1648_/CLK sky130_fd_sc_hd__inv_2
XFILLER_0_3_248 VGND VGND VPWR VPWR sky130_fd_sc_hd__fill_1
XPHY_EDGE_ROW_24_Left_63 VGND VGND VPWR VPWR sky130_fd_sc_hd__decap_3
XFILLER_0_36_7 VGND VGND VPWR VPWR sky130_fd_sc_hd__fill_1
X_1166_ _1201_/B _1352_/A VGND VGND VPWR VPWR _1166_/Y sky130_fd_sc_hd__nand2_1
X_1235_ _1235_/A _1235_/B VGND VGND VPWR VPWR _1236_/C sky130_fd_sc_hd__nor2_1
X_1304_ hold52/A hold46/A _1339_/S VGND VGND VPWR VPWR _1304_/X sky130_fd_sc_hd__mux2_1
X_1097_ _1076_/A _1089_/X _1096_/X _0845_/A VGND VGND VPWR VPWR _1578_/D sky130_fd_sc_hd__o211a_1
XFILLER_0_19_137 VPWR VGND VPWR VGND sky130_ef_sc_hd__decap_12
XTAP_TAPCELL_ROW_22_205 VGND VPWR sky130_fd_sc_hd__tapvpwrvgnd_1
XFILLER_0_31_19 VGND VGND VPWR VPWR sky130_fd_sc_hd__fill_1
XFILLER_0_33_162 VGND VGND VPWR VPWR sky130_fd_sc_hd__fill_1
X_1020_ hold29/A _1592_/Q _1593_/Q VGND VGND VPWR VPWR _1057_/A sky130_fd_sc_hd__nand3_1
Xclkbuf_4_11_0_clk clkbuf_0_clk/X VGND VGND VPWR VPWR clkload10/A sky130_fd_sc_hd__clkbuf_8
X_0804_ _1619_/Q hold20/A VGND VGND VPWR VPWR _0832_/A sky130_fd_sc_hd__and2b_1
X_1149_ _1149_/A _1349_/B VGND VGND VPWR VPWR _1358_/A sky130_fd_sc_hd__nor2_2
XFILLER_0_27_3 VGND VGND VPWR VPWR sky130_fd_sc_hd__decap_4
X_1218_ _1581_/Q _0766_/Y _1136_/A _1580_/Q VGND VGND VPWR VPWR _1218_/X sky130_fd_sc_hd__o22a_1
XFILLER_0_30_187 VGND VGND VPWR VPWR sky130_fd_sc_hd__decap_3
XFILLER_0_15_140 VPWR VGND VPWR VGND sky130_ef_sc_hd__decap_12
Xhold42 hold42/A VGND VGND VPWR VPWR hold42/X sky130_fd_sc_hd__dlygate4sd3_1
Xhold31 hold31/A VGND VGND VPWR VPWR hold31/X sky130_fd_sc_hd__dlygate4sd3_1
Xhold20 hold20/A VGND VGND VPWR VPWR hold20/X sky130_fd_sc_hd__dlygate4sd3_1
Xhold53 hold53/A VGND VGND VPWR VPWR hold53/X sky130_fd_sc_hd__dlygate4sd3_1
XFILLER_0_38_221 VGND VGND VPWR VPWR sky130_fd_sc_hd__decap_3
XFILLER_0_38_298 VGND VGND VPWR VPWR sky130_fd_sc_hd__decap_3
XFILLER_0_38_287 VGND VGND VPWR VPWR sky130_fd_sc_hd__fill_2
X_1003_ _1615_/Q _1002_/X _1019_/C _0993_/B VGND VGND VPWR VPWR _1615_/D sky130_fd_sc_hd__o211a_1
XPHY_EDGE_ROW_6_Right_6 VGND VGND VPWR VPWR sky130_fd_sc_hd__decap_3
XPHY_EDGE_ROW_11_Left_50 VGND VGND VPWR VPWR sky130_fd_sc_hd__decap_3
XFILLER_0_35_279 VGND VGND VPWR VPWR sky130_fd_sc_hd__fill_1
X_1387__23 _1372__8/A VGND VGND VPWR VPWR _1530_/CLK sky130_fd_sc_hd__inv_2
X_1621_ _1621_/CLK _1621_/D VGND VGND VPWR VPWR _1621_/Q sky130_fd_sc_hd__dfxtp_1
X_1552_ _1552_/CLK hold13/X VGND VGND VPWR VPWR hold12/A sky130_fd_sc_hd__dfxtp_1
XFILLER_0_4_151 VPWR VGND VPWR VGND sky130_ef_sc_hd__decap_12
XFILLER_0_4_195 VGND VGND VPWR VPWR sky130_fd_sc_hd__fill_1
X_1370__6 _1533_/CLK VGND VGND VPWR VPWR _1513_/CLK sky130_fd_sc_hd__inv_2
X_0983_ _1621_/Q _0983_/B VGND VGND VPWR VPWR _0985_/B sky130_fd_sc_hd__nand2_1
XFILLER_0_13_75 VGND VGND VPWR VPWR sky130_fd_sc_hd__fill_1
XTAP_TAPCELL_ROW_14_163 VGND VPWR sky130_fd_sc_hd__tapvpwrvgnd_1
X_1535_ _1541_/CLK input3/X VGND VGND VPWR VPWR _1535_/Q sky130_fd_sc_hd__dfxtp_1
X_1604_ _1604_/CLK _1604_/D VGND VGND VPWR VPWR hold4/A sky130_fd_sc_hd__dfxtp_1
XTAP_TAPCELL_ROW_37_288 VGND VPWR sky130_fd_sc_hd__tapvpwrvgnd_1
XFILLER_0_9_221 VGND VGND VPWR VPWR sky130_fd_sc_hd__decap_3
XFILLER_0_20_219 VGND VGND VPWR VPWR sky130_fd_sc_hd__decap_6
XFILLER_0_13_271 VGND VGND VPWR VPWR sky130_fd_sc_hd__fill_2
XTAP_TAPCELL_ROW_11_144 VGND VPWR sky130_fd_sc_hd__tapvpwrvgnd_1
X_1320_ _1340_/A1 _1319_/X _1318_/X _1344_/C1 VGND VGND VPWR VPWR _1320_/X sky130_fd_sc_hd__a211o_1
XFILLER_0_11_219 VGND VGND VPWR VPWR sky130_fd_sc_hd__fill_2
X_1182_ hold54/A hold12/X _1184_/S VGND VGND VPWR VPWR hold13/A sky130_fd_sc_hd__mux2_1
X_1251_ _1251_/A _1251_/B _1251_/C VGND VGND VPWR VPWR _1532_/D sky130_fd_sc_hd__and3_1
XFILLER_0_24_85 VPWR VGND VPWR VGND sky130_ef_sc_hd__decap_12
X_1441__77 clkload1/A VGND VGND VPWR VPWR _1593_/CLK sky130_fd_sc_hd__inv_2
XFILLER_0_6_268 VPWR VGND VPWR VGND sky130_ef_sc_hd__decap_12
X_0966_ _0940_/A _1625_/Q _0963_/Y wire17/X _1201_/B VGND VGND VPWR VPWR _0967_/B
+ sky130_fd_sc_hd__a32o_1
X_0897_ _0897_/A _0897_/B _0896_/X VGND VGND VPWR VPWR _0897_/X sky130_fd_sc_hd__or3b_1
X_1518_ _1518_/CLK _1518_/D VGND VGND VPWR VPWR _1518_/Q sky130_fd_sc_hd__dfxtp_1
XFILLER_0_4_73 VGND VGND VPWR VPWR sky130_fd_sc_hd__decap_8
XTAP_TAPCELL_ROW_25_225 VGND VPWR sky130_fd_sc_hd__tapvpwrvgnd_1
XFILLER_0_33_333 VGND VGND VPWR VPWR sky130_fd_sc_hd__fill_2
XFILLER_0_28_138 VGND VGND VPWR VPWR sky130_fd_sc_hd__fill_2
XFILLER_0_28_149 VPWR VGND VPWR VGND sky130_ef_sc_hd__decap_12
X_0820_ _0834_/A _0834_/B _0834_/C VGND VGND VPWR VPWR _0822_/C sky130_fd_sc_hd__or3_1
X_1303_ hold52/A _0913_/Y _1333_/B1 _1302_/X VGND VGND VPWR VPWR _1303_/X sky130_fd_sc_hd__o211a_1
XTAP_TAPCELL_ROW_0_80 VGND VPWR sky130_fd_sc_hd__tapvpwrvgnd_1
X_1234_ _1234_/A _1234_/B VGND VGND VPWR VPWR _1236_/B sky130_fd_sc_hd__and2_1
X_1165_ uo_out[7] _1179_/S _1164_/X _1161_/X _1180_/A VGND VGND VPWR VPWR _1557_/D
+ sky130_fd_sc_hd__o221a_1
X_1096_ _1578_/Q _1104_/B VGND VGND VPWR VPWR _1096_/X sky130_fd_sc_hd__or2_1
XFILLER_0_19_149 VPWR VGND VPWR VGND sky130_ef_sc_hd__decap_12
XTAP_TAPCELL_ROW_22_206 VGND VPWR sky130_fd_sc_hd__tapvpwrvgnd_1
XTAP_TAPCELL_ROW_30_250 VGND VPWR sky130_fd_sc_hd__tapvpwrvgnd_1
X_0949_ _0956_/A _0949_/B VGND VGND VPWR VPWR _1633_/D sky130_fd_sc_hd__and2_1
XFILLER_0_18_193 VGND VGND VPWR VPWR sky130_fd_sc_hd__decap_3
X_1504__140 clkload8/A VGND VGND VPWR VPWR _1656_/CLK sky130_fd_sc_hd__inv_2
X_0803_ _1648_/Q _1610_/Q VGND VGND VPWR VPWR _0834_/C sky130_fd_sc_hd__and2b_1
XFILLER_0_12_325 VGND VGND VPWR VPWR sky130_fd_sc_hd__decap_8
X_1411__47 clkload0/A VGND VGND VPWR VPWR _1563_/CLK sky130_fd_sc_hd__inv_2
XFILLER_0_24_141 VGND VGND VPWR VPWR sky130_fd_sc_hd__decap_3
XFILLER_0_24_163 VGND VGND VPWR VPWR sky130_fd_sc_hd__decap_8
XFILLER_0_24_174 VGND VGND VPWR VPWR sky130_fd_sc_hd__decap_6
X_1148_ _1162_/A _1148_/B _1162_/B _1162_/C VGND VGND VPWR VPWR _1148_/X sky130_fd_sc_hd__or4bb_1
X_1079_ _1076_/A _1192_/A _1078_/X _1117_/C1 VGND VGND VPWR VPWR _1586_/D sky130_fd_sc_hd__o211a_1
X_1217_ _1214_/X _1215_/X _1216_/X VGND VGND VPWR VPWR _1217_/X sky130_fd_sc_hd__a21o_1
XFILLER_0_15_152 VGND VGND VPWR VPWR sky130_fd_sc_hd__decap_3
Xhold54 hold54/A VGND VGND VPWR VPWR hold54/X sky130_fd_sc_hd__dlygate4sd3_1
Xhold43 hold43/A VGND VGND VPWR VPWR hold43/X sky130_fd_sc_hd__dlygate4sd3_1
Xhold10 hold10/A VGND VGND VPWR VPWR hold10/X sky130_fd_sc_hd__dlygate4sd3_1
Xhold21 hold21/A VGND VGND VPWR VPWR hold21/X sky130_fd_sc_hd__dlygate4sd3_1
Xhold32 hold32/A VGND VGND VPWR VPWR hold32/X sky130_fd_sc_hd__dlygate4sd3_1
XFILLER_0_21_144 VGND VGND VPWR VPWR sky130_fd_sc_hd__decap_4
XFILLER_0_21_166 VGND VGND VPWR VPWR sky130_fd_sc_hd__fill_2
X_1002_ _1614_/Q _1004_/B VGND VGND VPWR VPWR _1002_/X sky130_fd_sc_hd__and2_1
XFILLER_0_32_85 VGND VGND VPWR VPWR sky130_fd_sc_hd__fill_1
XFILLER_0_4_333 VGND VGND VPWR VPWR sky130_fd_sc_hd__fill_2
Xclkbuf_4_10_0_clk clkbuf_0_clk/X VGND VGND VPWR VPWR clkload9/A sky130_fd_sc_hd__clkbuf_8
XFILLER_0_9_3 VPWR VGND VPWR VGND sky130_ef_sc_hd__decap_12
X_1620_ _1620_/CLK _1620_/D VGND VGND VPWR VPWR hold24/A sky130_fd_sc_hd__dfxtp_1
X_1551_ _1551_/CLK _1551_/D VGND VGND VPWR VPWR hold55/A sky130_fd_sc_hd__dfxtp_2
XFILLER_0_4_163 VPWR VGND VPWR VGND sky130_ef_sc_hd__decap_12
XFILLER_0_7_95 VPWR VGND VPWR VGND sky130_ef_sc_hd__decap_12
XFILLER_0_7_51 VGND VGND VPWR VPWR sky130_fd_sc_hd__decap_4
X_1447__83 _1454__90/A VGND VGND VPWR VPWR _1599_/CLK sky130_fd_sc_hd__inv_2
X_0982_ _0983_/B VGND VGND VPWR VPWR _0982_/Y sky130_fd_sc_hd__inv_2
XTAP_TAPCELL_ROW_14_164 VGND VPWR sky130_fd_sc_hd__tapvpwrvgnd_1
X_1534_ _1541_/CLK input2/X VGND VGND VPWR VPWR _1534_/Q sky130_fd_sc_hd__dfxtp_1
XFILLER_0_1_111 VGND VGND VPWR VPWR sky130_fd_sc_hd__fill_1
X_1603_ _1603_/CLK _1603_/D VGND VGND VPWR VPWR hold25/A sky130_fd_sc_hd__dfxtp_1
XFILLER_0_22_250 VGND VGND VPWR VPWR sky130_fd_sc_hd__fill_2
XTAP_TAPCELL_ROW_37_289 VGND VPWR sky130_fd_sc_hd__tapvpwrvgnd_1
XTAP_TAPCELL_ROW_11_145 VGND VPWR sky130_fd_sc_hd__tapvpwrvgnd_1
X_1181_ _1546_/Q hold3/X _1184_/S VGND VGND VPWR VPWR _1553_/D sky130_fd_sc_hd__mux2_1
X_1250_ _1676_/A _0826_/X _0984_/B _1248_/X VGND VGND VPWR VPWR _1251_/C sky130_fd_sc_hd__o211ai_1
XFILLER_0_24_42 VGND VGND VPWR VPWR sky130_fd_sc_hd__decap_3
XFILLER_0_24_53 VGND VGND VPWR VPWR sky130_fd_sc_hd__fill_2
X_0896_ _0888_/X _0891_/X _0896_/C _0896_/D VGND VGND VPWR VPWR _0896_/X sky130_fd_sc_hd__and4bb_1
X_0965_ _0971_/A _0965_/B VGND VGND VPWR VPWR _1626_/D sky130_fd_sc_hd__and2_1
X_1517_ _1517_/CLK _1517_/D VGND VGND VPWR VPWR _1517_/Q sky130_fd_sc_hd__dfxtp_1
X_1480__116 clkload9/A VGND VGND VPWR VPWR _1632_/CLK sky130_fd_sc_hd__inv_2
X_1417__53 clkload6/A VGND VGND VPWR VPWR _1569_/CLK sky130_fd_sc_hd__inv_2
XFILLER_0_18_331 VGND VGND VPWR VPWR sky130_fd_sc_hd__decap_4
X_1302_ hold46/A _1322_/B VGND VGND VPWR VPWR _1302_/X sky130_fd_sc_hd__or2_1
X_1233_ hold54/X _1130_/D _1232_/X _1199_/A VGND VGND VPWR VPWR _1545_/D sky130_fd_sc_hd__o211a_1
XTAP_TAPCELL_ROW_0_81 VGND VPWR sky130_fd_sc_hd__tapvpwrvgnd_1
XFILLER_0_19_64 VPWR VGND VPWR VGND sky130_ef_sc_hd__decap_12
X_1164_ _1260_/A _1342_/C1 _1179_/S VGND VGND VPWR VPWR _1164_/X sky130_fd_sc_hd__a21bo_1
X_1095_ _1162_/B _1089_/X _1094_/X _0971_/A VGND VGND VPWR VPWR _1579_/D sky130_fd_sc_hd__o211a_1
XTAP_TAPCELL_ROW_30_251 VGND VPWR sky130_fd_sc_hd__tapvpwrvgnd_1