*SPEF "ieee 1481-1999"
*DESIGN "tt_um_jimktrains_vslc"
*DATE "06:05:17 Friday January 31, 2025"
*VENDOR "The OpenROAD Project"
*PROGRAM "OpenROAD"
*VERSION "b16bda7e82721d10566ff7e2b68f1ff0be9f9e38"
*DESIGN_FLOW "NAME_SCOPE LOCAL" "PIN_CAP NONE"
*DIVIDER /
*DELIMITER :
*BUS_DELIMITER []
*T_UNIT 1 NS
*C_UNIT 1 PF
*R_UNIT 1 OHM
*L_UNIT 1 HENRY

*NAME_MAP
*3 clk
*4 ena
*5 rst_n
*6 ui_in[0]
*7 ui_in[1]
*8 ui_in[2]
*9 ui_in[3]
*10 ui_in[4]
*11 ui_in[5]
*12 ui_in[6]
*13 ui_in[7]
*14 uio_in[0]
*15 uio_in[1]
*16 uio_in[2]
*17 uio_in[3]
*18 uio_in[4]
*19 uio_in[5]
*20 uio_in[6]
*21 uio_in[7]
*22 uio_oe[0]
*23 uio_oe[1]
*24 uio_oe[2]
*25 net64
*26 net65
*27 net66
*28 uio_oe[6]
*29 uio_oe[7]
*30 uio_out[0]
*31 uio_out[1]
*32 uio_out[2]
*33 net67
*34 net68
*35 net69
*36 uio_out[6]
*37 uio_out[7]
*38 uo_out[0]
*39 uo_out[1]
*40 uo_out[2]
*41 uo_out[3]
*42 uo_out[4]
*43 uo_out[5]
*44 uo_out[6]
*45 uo_out[7]
*46 _0143_
*47 _0144_
*48 _0145_
*49 _0146_
*50 _0147_
*51 _0148_
*52 _0149_
*53 _0150_
*54 _0151_
*55 _0152_
*56 _0153_
*57 _0154_
*58 _0155_
*59 _0156_
*60 _0157_
*61 _0158_
*62 _0159_
*63 _0160_
*64 _0161_
*65 _0162_
*66 _0163_
*67 _0164_
*68 _0165_
*69 _0166_
*70 _0167_
*71 _0168_
*72 _0169_
*73 _0170_
*74 _0171_
*75 _0172_
*76 _0173_
*77 _0174_
*78 _0175_
*79 _0176_
*80 _0177_
*81 _0178_
*82 _0179_
*83 _0180_
*84 _0181_
*85 _0182_
*86 _0183_
*87 _0184_
*88 _0185_
*89 _0186_
*90 _0187_
*91 _0188_
*92 _0189_
*93 _0190_
*94 _0191_
*95 _0192_
*96 _0193_
*97 _0194_
*98 _0195_
*99 _0196_
*100 _0197_
*101 _0198_
*102 _0199_
*103 _0200_
*104 _0201_
*105 _0202_
*106 _0203_
*107 _0204_
*108 _0205_
*109 _0206_
*110 _0207_
*111 _0208_
*112 _0209_
*113 _0210_
*114 _0211_
*115 _0212_
*116 _0213_
*117 _0214_
*118 _0215_
*119 _0216_
*120 _0217_
*121 _0218_
*122 _0219_
*123 _0220_
*124 _0221_
*125 _0222_
*126 _0223_
*127 _0224_
*128 _0225_
*129 _0226_
*130 _0227_
*131 _0228_
*132 _0229_
*133 _0230_
*134 _0231_
*135 _0232_
*136 _0233_
*137 _0234_
*138 _0235_
*139 _0236_
*140 _0237_
*141 _0238_
*142 _0239_
*143 _0240_
*144 _0241_
*145 _0242_
*146 _0243_
*147 _0244_
*148 _0245_
*149 _0246_
*150 _0247_
*151 _0248_
*152 _0249_
*153 _0250_
*154 _0251_
*155 _0252_
*156 _0253_
*157 _0254_
*158 _0255_
*159 _0256_
*160 _0257_
*161 _0258_
*162 _0259_
*163 _0260_
*164 _0261_
*165 _0262_
*166 _0263_
*167 _0264_
*168 _0265_
*169 _0266_
*170 _0267_
*171 _0268_
*172 _0269_
*173 _0270_
*174 _0271_
*175 _0272_
*176 _0273_
*177 _0274_
*178 _0275_
*179 _0276_
*180 _0277_
*181 _0278_
*182 _0279_
*183 _0280_
*184 _0281_
*185 _0282_
*186 _0283_
*187 _0284_
*188 _0285_
*189 _0286_
*190 _0287_
*191 _0288_
*192 _0289_
*193 _0290_
*194 _0291_
*195 _0292_
*196 _0293_
*197 _0294_
*198 _0295_
*199 _0296_
*200 _0297_
*201 _0298_
*202 _0299_
*203 _0300_
*204 _0301_
*205 _0302_
*206 _0303_
*207 _0304_
*208 _0305_
*209 _0306_
*210 _0307_
*211 _0308_
*212 _0309_
*213 _0310_
*214 _0311_
*215 _0312_
*216 _0313_
*217 _0314_
*218 _0315_
*219 _0316_
*220 _0317_
*221 _0318_
*222 _0319_
*223 _0320_
*224 _0321_
*225 _0322_
*226 _0323_
*227 _0324_
*228 _0325_
*229 _0326_
*230 _0327_
*231 _0328_
*232 _0329_
*233 _0330_
*234 _0331_
*235 _0332_
*236 _0333_
*237 _0334_
*238 _0335_
*239 _0336_
*240 _0337_
*241 _0338_
*242 _0339_
*243 _0340_
*244 _0341_
*245 _0342_
*246 _0343_
*247 _0344_
*248 _0345_
*249 _0346_
*250 _0347_
*251 _0348_
*252 _0349_
*253 _0350_
*254 _0351_
*255 _0352_
*256 _0353_
*257 _0354_
*258 _0355_
*259 _0356_
*260 _0357_
*261 _0358_
*262 _0359_
*263 _0360_
*264 _0361_
*265 _0362_
*266 _0363_
*267 _0364_
*268 _0365_
*269 _0366_
*270 _0367_
*271 _0368_
*272 _0369_
*273 _0370_
*274 _0371_
*275 _0372_
*276 _0373_
*277 _0374_
*278 _0375_
*279 _0376_
*280 _0377_
*281 _0378_
*282 _0379_
*283 _0380_
*284 _0381_
*285 _0382_
*286 _0383_
*287 _0384_
*288 _0385_
*289 _0386_
*290 _0387_
*291 _0388_
*292 _0389_
*293 _0390_
*294 _0391_
*295 _0392_
*296 _0393_
*297 _0394_
*298 _0395_
*299 _0396_
*300 _0397_
*301 _0398_
*302 _0399_
*303 _0400_
*304 _0401_
*305 _0402_
*306 _0403_
*307 _0404_
*308 _0405_
*309 _0406_
*310 _0407_
*311 _0408_
*312 _0409_
*313 _0410_
*314 _0411_
*315 _0412_
*316 _0413_
*317 _0414_
*318 _0415_
*319 _0416_
*320 _0417_
*321 _0418_
*322 _0419_
*323 _0420_
*324 _0421_
*325 _0422_
*326 _0423_
*327 _0424_
*328 _0425_
*329 _0426_
*330 _0427_
*331 _0428_
*332 _0429_
*333 _0430_
*334 _0431_
*335 _0432_
*336 _0433_
*337 _0434_
*338 _0435_
*339 _0436_
*340 _0437_
*341 _0438_
*342 _0439_
*343 _0440_
*344 _0441_
*345 _0442_
*346 _0443_
*347 _0444_
*348 _0445_
*349 _0446_
*350 _0447_
*351 _0448_
*352 _0449_
*353 _0450_
*354 _0451_
*355 _0452_
*356 _0453_
*357 _0454_
*358 _0455_
*359 _0456_
*360 _0457_
*361 _0458_
*362 _0459_
*363 _0460_
*364 _0461_
*365 _0462_
*366 _0463_
*367 _0464_
*368 _0465_
*369 _0466_
*370 _0467_
*371 _0468_
*372 _0469_
*373 _0470_
*374 _0471_
*375 _0472_
*376 _0473_
*377 _0474_
*378 _0475_
*379 _0476_
*380 _0477_
*381 _0478_
*382 _0479_
*383 _0480_
*384 _0481_
*385 _0482_
*386 _0483_
*387 _0484_
*388 _0485_
*389 _0486_
*390 _0487_
*391 _0488_
*392 _0489_
*393 _0490_
*394 _0491_
*395 _0492_
*396 _0493_
*397 _0494_
*398 _0495_
*399 _0496_
*400 _0497_
*401 _0498_
*402 _0499_
*403 _0500_
*404 _0501_
*405 _0502_
*406 _0503_
*407 _0504_
*408 _0505_
*409 _0506_
*410 _0507_
*411 _0508_
*412 _0509_
*413 _0510_
*414 _0511_
*415 _0512_
*416 _0513_
*417 _0514_
*418 _0515_
*419 _0516_
*420 _0517_
*421 _0518_
*422 _0519_
*423 _0520_
*424 _0521_
*425 _0522_
*426 _0523_
*427 _0524_
*428 _0525_
*429 _0526_
*430 _0527_
*431 _0528_
*432 _0529_
*433 _0530_
*434 _0531_
*435 _0532_
*436 _0533_
*437 _0534_
*438 _0535_
*439 _0536_
*440 _0537_
*441 _0538_
*442 _0539_
*443 _0540_
*444 _0541_
*445 _0542_
*446 _0543_
*447 _0544_
*448 _0545_
*449 _0546_
*450 _0547_
*451 _0548_
*452 _0549_
*453 _0550_
*454 _0551_
*455 _0552_
*456 _0553_
*457 _0554_
*458 _0555_
*459 _0556_
*460 _0557_
*461 _0558_
*462 _0559_
*463 _0560_
*464 _0561_
*465 _0562_
*466 _0563_
*467 _0564_
*468 _0565_
*469 _0566_
*470 _0567_
*471 _0568_
*472 _0569_
*473 _0570_
*474 _0571_
*475 _0572_
*476 _0573_
*477 _0574_
*478 _0575_
*479 _0576_
*480 _0577_
*481 _0578_
*482 _0579_
*483 _0580_
*484 _0581_
*485 _0582_
*486 _0583_
*487 _0584_
*488 _0585_
*489 _0586_
*490 _0587_
*491 _0588_
*492 _0589_
*493 _0590_
*494 _0591_
*495 _0592_
*496 _0593_
*497 _0594_
*498 _0595_
*499 _0596_
*500 _0597_
*501 _0598_
*502 _0599_
*503 _0600_
*504 _0601_
*505 _0602_
*506 _0603_
*507 _0604_
*508 _0605_
*509 _0606_
*510 _0607_
*511 _0608_
*512 _0609_
*513 _0610_
*514 _0611_
*515 _0612_
*516 _0613_
*517 _0614_
*518 _0615_
*519 _0616_
*520 _0617_
*521 _0618_
*522 _0619_
*523 _0620_
*524 _0621_
*525 _0622_
*526 _0623_
*527 _0624_
*528 _0625_
*529 _0626_
*530 _0627_
*531 _0628_
*532 _0629_
*533 _0630_
*534 _0631_
*535 _0632_
*536 _0633_
*537 _0634_
*538 _0635_
*539 _0636_
*540 _0637_
*541 _0638_
*542 _0639_
*543 _0640_
*544 _0641_
*545 _0642_
*546 _0643_
*547 _0644_
*548 _0645_
*549 _0646_
*550 _0647_
*551 _0648_
*552 _0649_
*553 _0650_
*554 _0651_
*555 _0652_
*556 _0653_
*557 _0654_
*558 _0655_
*559 _0656_
*560 _0657_
*561 _0658_
*562 _0659_
*563 _0660_
*564 _0661_
*565 _0662_
*566 _0663_
*567 _0664_
*568 _0665_
*569 _0666_
*570 _0667_
*571 _0668_
*572 _0669_
*573 _0670_
*574 _0671_
*575 _0672_
*576 _0673_
*577 _0674_
*578 _0675_
*579 _0676_
*580 _0677_
*581 _0678_
*582 _0679_
*583 _0680_
*584 _0681_
*585 _0682_
*586 _0683_
*587 _0684_
*588 _0685_
*589 _0686_
*590 _0687_
*591 _0688_
*592 _0689_
*593 _0690_
*594 _0691_
*595 _0692_
*596 _0693_
*597 _0694_
*598 _0695_
*599 _0696_
*600 _0697_
*601 _0698_
*602 _0699_
*603 _0700_
*604 _0701_
*605 _0702_
*606 _0703_
*607 _0704_
*608 _0705_
*609 _0706_
*610 _0707_
*611 _0708_
*612 _0709_
*613 _0710_
*614 _0711_
*615 _0712_
*616 _0713_
*617 _0714_
*618 _0715_
*619 _0716_
*620 _0717_
*621 _0718_
*622 _0719_
*623 _0720_
*624 _0721_
*625 _0722_
*626 _0723_
*627 _0724_
*628 _0725_
*629 _0726_
*630 _0727_
*631 _0728_
*632 _0729_
*633 _0730_
*634 _0731_
*635 _0732_
*636 _0733_
*637 _0734_
*638 _0735_
*639 _0736_
*640 _0737_
*641 _0738_
*642 _0739_
*643 _0740_
*644 _0741_
*645 _0742_
*646 _0743_
*647 _0744_
*648 _0745_
*649 _0746_
*650 _0747_
*651 _0748_
*652 _0749_
*653 _0750_
*654 _0751_
*655 _0752_
*656 _0753_
*657 clknet_0_clk
*658 clknet_4_0_0_clk
*659 clknet_4_10_0_clk
*660 clknet_4_11_0_clk
*661 clknet_4_12_0_clk
*662 clknet_4_13_0_clk
*663 clknet_4_14_0_clk
*664 clknet_4_15_0_clk
*665 clknet_4_1_0_clk
*666 clknet_4_2_0_clk
*667 clknet_4_3_0_clk
*668 clknet_4_4_0_clk
*669 clknet_4_5_0_clk
*670 clknet_4_6_0_clk
*671 clknet_4_7_0_clk
*672 clknet_4_8_0_clk
*673 clknet_4_9_0_clk
*674 cur_addr\[0\]
*675 cur_addr\[1\]
*676 cur_addr\[2\]
*677 cur_addr\[3\]
*678 cur_addr\[4\]
*679 cur_addr\[5\]
*680 cur_addr\[6\]
*681 cur_addr\[7\]
*682 cycle_end_addr\[0\]
*683 cycle_end_addr\[1\]
*684 cycle_end_addr\[2\]
*685 cycle_end_addr\[3\]
*686 cycle_end_addr\[4\]
*687 cycle_end_addr\[5\]
*688 cycle_end_addr\[6\]
*689 cycle_end_addr\[7\]
*690 cycle_start_addr\[0\]
*691 cycle_start_addr\[1\]
*692 cycle_start_addr\[2\]
*693 cycle_start_addr\[3\]
*694 cycle_start_addr\[4\]
*695 cycle_start_addr\[5\]
*696 cycle_start_addr\[6\]
*697 cycle_start_addr\[7\]
*698 eeprom_copi
*699 eeprom_cs
*700 eeprom_oe_copi
*701 eeprom_sck
*702 fetch_count\[0\]
*703 fetch_count\[1\]
*704 fetch_count\[2\]
*705 fetch_prev_state\[0\]
*706 fetch_prev_state\[1\]
*707 fetch_prev_state\[2\]
*708 fetch_prev_state\[3\]
*709 fetch_state\[0\]
*710 fetch_state\[1\]
*711 fetch_state\[2\]
*712 fetch_state\[3\]
*713 instr\[0\]
*714 instr\[1\]
*715 instr\[2\]
*716 instr\[3\]
*717 instr\[4\]
*718 instr\[5\]
*719 instr\[6\]
*720 instr\[7\]
*721 net1
*722 net10
*723 net100
*724 net101
*725 net102
*726 net103
*727 net104
*728 net105
*729 net106
*730 net107
*731 net108
*732 net109
*733 net11
*734 net110
*735 net111
*736 net112
*737 net113
*738 net114
*739 net115
*740 net116
*741 net117
*742 net118
*743 net119
*744 net12
*745 net120
*746 net121
*747 net122
*748 net123
*749 net124
*750 net125
*751 net126
*752 net127
*753 net128
*754 net129
*755 net13
*756 net130
*757 net131
*758 net132
*759 net133
*760 net134
*761 net135
*762 net136
*763 net137
*764 net138
*765 net139
*766 net14
*767 net140
*768 net141
*769 net142
*770 net143
*771 net144
*772 net145
*773 net146
*774 net147
*775 net148
*776 net149
*777 net15
*778 net150
*779 net151
*780 net152
*781 net153
*782 net154
*783 net155
*784 net156
*785 net157
*786 net158
*787 net159
*788 net16
*789 net160
*790 net161
*791 net162
*792 net163
*793 net164
*794 net165
*795 net166
*796 net167
*797 net168
*798 net169
*799 net17
*800 net170
*801 net171
*802 net172
*803 net173
*804 net174
*805 net175
*806 net176
*807 net177
*808 net178
*809 net179
*810 net18
*811 net180
*812 net181
*813 net182
*814 net183
*815 net184
*816 net185
*817 net186
*818 net187
*819 net188
*820 net189
*821 net19
*822 net190
*823 net191
*824 net192
*825 net193
*826 net194
*827 net195
*828 net196
*829 net197
*830 net198
*831 net199
*832 net2
*833 net20
*834 net200
*835 net201
*836 net202
*837 net203
*838 net204
*839 net205
*840 net206
*841 net207
*842 net208
*843 net209
*844 net21
*845 net210
*846 net211
*847 net212
*848 net213
*849 net214
*850 net215
*851 net216
*852 net217
*853 net218
*854 net219
*855 net22
*856 net220
*857 net221
*858 net222
*859 net223
*860 net224
*861 net225
*862 net226
*863 net227
*864 net228
*865 net229
*866 net23
*867 net230
*868 net231
*869 net232
*870 net233
*871 net234
*872 net235
*873 net236
*874 net237
*875 net238
*876 net239
*877 net24
*878 net240
*879 net241
*880 net242
*881 net243
*882 net244
*883 net245
*884 net246
*885 net247
*886 net248
*887 net249
*888 net25
*889 net250
*890 net251
*891 net252
*892 net253
*893 net254
*894 net255
*895 net256
*896 net257
*897 net258
*898 net259
*899 net26
*900 net260
*901 net261
*902 net262
*903 net263
*904 net264
*905 net265
*906 net266
*907 net267
*908 net268
*909 net269
*910 net27
*911 net270
*912 net271
*913 net28
*914 net29
*915 net3
*916 net30
*917 net31
*918 net32
*919 net33
*920 net34
*921 net35
*922 net36
*923 net37
*924 net38
*925 net39
*926 net4
*927 net40
*928 net41
*929 net42
*930 net43
*931 net44
*932 net45
*933 net46
*934 net47
*935 net48
*936 net49
*937 net5
*938 net50
*939 net51
*940 net52
*941 net53
*942 net54
*943 net55
*944 net56
*945 net57
*946 net58
*947 net59
*948 net6
*949 net60
*950 net61
*951 net62
*952 net63
*953 net7
*954 net70
*955 net71
*956 net72
*957 net73
*958 net74
*959 net75
*960 net76
*961 net77
*962 net78
*963 net79
*964 net8
*965 net80
*966 net81
*967 net82
*968 net83
*969 net84
*970 net85
*971 net86
*972 net87
*973 net88
*974 net89
*975 net9
*976 net90
*977 net91
*978 net92
*979 net93
*980 net94
*981 net95
*982 net96
*983 net97
*984 net98
*985 net99
*986 stack\[0\]
*987 stack\[10\]
*988 stack\[11\]
*989 stack\[12\]
*990 stack\[13\]
*991 stack\[14\]
*992 stack\[15\]
*993 stack\[1\]
*994 stack\[2\]
*995 stack\[3\]
*996 stack\[4\]
*997 stack\[5\]
*998 stack\[6\]
*999 stack\[7\]
*1000 stack\[8\]
*1001 stack\[9\]
*1002 stack_out
*1003 timer_clock_counter\[0\]
*1004 timer_clock_counter\[10\]
*1005 timer_clock_counter\[11\]
*1006 timer_clock_counter\[12\]
*1007 timer_clock_counter\[13\]
*1008 timer_clock_counter\[14\]
*1009 timer_clock_counter\[15\]
*1010 timer_clock_counter\[1\]
*1011 timer_clock_counter\[2\]
*1012 timer_clock_counter\[3\]
*1013 timer_clock_counter\[4\]
*1014 timer_clock_counter\[5\]
*1015 timer_clock_counter\[6\]
*1016 timer_clock_counter\[7\]
*1017 timer_clock_counter\[8\]
*1018 timer_clock_counter\[9\]
*1019 timer_clock_divisor\[0\]
*1020 timer_clock_divisor\[1\]
*1021 timer_clock_divisor\[2\]
*1022 timer_clock_divisor\[3\]
*1023 timer_counter\[0\]
*1024 timer_counter\[10\]
*1025 timer_counter\[11\]
*1026 timer_counter\[12\]
*1027 timer_counter\[13\]
*1028 timer_counter\[14\]
*1029 timer_counter\[15\]
*1030 timer_counter\[1\]
*1031 timer_counter\[2\]
*1032 timer_counter\[3\]
*1033 timer_counter\[4\]
*1034 timer_counter\[5\]
*1035 timer_counter\[6\]
*1036 timer_counter\[7\]
*1037 timer_counter\[8\]
*1038 timer_counter\[9\]
*1039 timer_enabled
*1040 timer_mode
*1041 timer_out
*1042 timer_period_a\[0\]
*1043 timer_period_a\[10\]
*1044 timer_period_a\[11\]
*1045 timer_period_a\[12\]
*1046 timer_period_a\[13\]
*1047 timer_period_a\[14\]
*1048 timer_period_a\[15\]
*1049 timer_period_a\[1\]
*1050 timer_period_a\[2\]
*1051 timer_period_a\[3\]
*1052 timer_period_a\[4\]
*1053 timer_period_a\[5\]
*1054 timer_period_a\[6\]
*1055 timer_period_a\[7\]
*1056 timer_period_a\[8\]
*1057 timer_period_a\[9\]
*1058 timer_period_b\[0\]
*1059 timer_period_b\[10\]
*1060 timer_period_b\[11\]
*1061 timer_period_b\[12\]
*1062 timer_period_b\[13\]
*1063 timer_period_b\[14\]
*1064 timer_period_b\[15\]
*1065 timer_period_b\[1\]
*1066 timer_period_b\[2\]
*1067 timer_period_b\[3\]
*1068 timer_period_b\[4\]
*1069 timer_period_b\[5\]
*1070 timer_period_b\[6\]
*1071 timer_period_b\[7\]
*1072 timer_period_b\[8\]
*1073 timer_period_b\[9\]
*1074 timer_phase
*1075 ui_in_reg\[0\]
*1076 ui_in_reg\[1\]
*1077 ui_in_reg\[2\]
*1078 ui_in_reg\[3\]
*1079 ui_in_reg\[4\]
*1080 ui_in_reg\[5\]
*1081 ui_in_reg\[6\]
*1082 ui_in_reg\[7\]
*1083 uio_in_reg\[3\]
*1084 FILLER_0_0_106
*1085 FILLER_0_0_113
*1086 FILLER_0_0_125
*1087 FILLER_0_0_137
*1088 FILLER_0_0_141
*1089 FILLER_0_0_15
*1090 FILLER_0_0_153
*1091 FILLER_0_0_165
*1092 FILLER_0_0_169
*1093 FILLER_0_0_181
*1094 FILLER_0_0_202
*1095 FILLER_0_0_220
*1096 FILLER_0_0_225
*1097 FILLER_0_0_237
*1098 FILLER_0_0_249
*1099 FILLER_0_0_253
*1100 FILLER_0_0_265
*1101 FILLER_0_0_27
*1102 FILLER_0_0_277
*1103 FILLER_0_0_281
*1104 FILLER_0_0_29
*1105 FILLER_0_0_293
*1106 FILLER_0_0_3
*1107 FILLER_0_0_305
*1108 FILLER_0_0_309
*1109 FILLER_0_0_321
*1110 FILLER_0_0_333
*1111 FILLER_0_0_41
*1112 FILLER_0_0_53
*1113 FILLER_0_0_57
*1114 FILLER_0_0_65
*1115 FILLER_0_0_77
*1116 FILLER_0_0_83
*1117 FILLER_0_0_94
*1118 FILLER_0_10_105
*1119 FILLER_0_10_117
*1120 FILLER_0_10_124
*1121 FILLER_0_10_146
*1122 FILLER_0_10_15
*1123 FILLER_0_10_158
*1124 FILLER_0_10_166
*1125 FILLER_0_10_174
*1126 FILLER_0_10_185
*1127 FILLER_0_10_195
*1128 FILLER_0_10_219
*1129 FILLER_0_10_249
*1130 FILLER_0_10_256
*1131 FILLER_0_10_268
*1132 FILLER_0_10_27
*1133 FILLER_0_10_276
*1134 FILLER_0_10_289
*1135 FILLER_0_10_3
*1136 FILLER_0_10_301
*1137 FILLER_0_10_307
*1138 FILLER_0_10_309
*1139 FILLER_0_10_323
*1140 FILLER_0_10_48
*1141 FILLER_0_10_60
*1142 FILLER_0_11_105
*1143 FILLER_0_11_129
*1144 FILLER_0_11_15
*1145 FILLER_0_11_156
*1146 FILLER_0_11_160
*1147 FILLER_0_11_169
*1148 FILLER_0_11_181
*1149 FILLER_0_11_193
*1150 FILLER_0_11_211
*1151 FILLER_0_11_219
*1152 FILLER_0_11_236
*1153 FILLER_0_11_263
*1154 FILLER_0_11_27
*1155 FILLER_0_11_272
*1156 FILLER_0_11_293
*1157 FILLER_0_11_3
*1158 FILLER_0_11_305
*1159 FILLER_0_11_328
*1160 FILLER_0_11_334
*1161 FILLER_0_11_40
*1162 FILLER_0_11_49
*1163 FILLER_0_11_55
*1164 FILLER_0_11_57
*1165 FILLER_0_11_61
*1166 FILLER_0_11_97
*1167 FILLER_0_12_141
*1168 FILLER_0_12_15
*1169 FILLER_0_12_167
*1170 FILLER_0_12_179
*1171 FILLER_0_12_189
*1172 FILLER_0_12_195
*1173 FILLER_0_12_203
*1174 FILLER_0_12_211
*1175 FILLER_0_12_236
*1176 FILLER_0_12_248
*1177 FILLER_0_12_253
*1178 FILLER_0_12_257
*1179 FILLER_0_12_268
*1180 FILLER_0_12_27
*1181 FILLER_0_12_29
*1182 FILLER_0_12_290
*1183 FILLER_0_12_298
*1184 FILLER_0_12_3
*1185 FILLER_0_12_325
*1186 FILLER_0_12_333
*1187 FILLER_0_12_41
*1188 FILLER_0_12_53
*1189 FILLER_0_12_96
*1190 FILLER_0_13_100
*1191 FILLER_0_13_104
*1192 FILLER_0_13_108
*1193 FILLER_0_13_113
*1194 FILLER_0_13_130
*1195 FILLER_0_13_136
*1196 FILLER_0_13_15
*1197 FILLER_0_13_158
*1198 FILLER_0_13_167
*1199 FILLER_0_13_175
*1200 FILLER_0_13_194
*1201 FILLER_0_13_205
*1202 FILLER_0_13_213
*1203 FILLER_0_13_223
*1204 FILLER_0_13_225
*1205 FILLER_0_13_236
*1206 FILLER_0_13_259
*1207 FILLER_0_13_27
*1208 FILLER_0_13_271
*1209 FILLER_0_13_292
*1210 FILLER_0_13_3
*1211 FILLER_0_13_330
*1212 FILLER_0_13_334
*1213 FILLER_0_13_49
*1214 FILLER_0_13_55
*1215 FILLER_0_13_57
*1216 FILLER_0_13_69
*1217 FILLER_0_13_75
*1218 FILLER_0_13_84
*1219 FILLER_0_13_96
*1220 FILLER_0_14_101
*1221 FILLER_0_14_113
*1222 FILLER_0_14_125
*1223 FILLER_0_14_137
*1224 FILLER_0_14_144
*1225 FILLER_0_14_15
*1226 FILLER_0_14_150
*1227 FILLER_0_14_170
*1228 FILLER_0_14_192
*1229 FILLER_0_14_21
*1230 FILLER_0_14_213
*1231 FILLER_0_14_234
*1232 FILLER_0_14_253
*1233 FILLER_0_14_265
*1234 FILLER_0_14_271
*1235 FILLER_0_14_278
*1236 FILLER_0_14_298
*1237 FILLER_0_14_3
*1238 FILLER_0_14_307
*1239 FILLER_0_14_317
*1240 FILLER_0_14_329
*1241 FILLER_0_14_34
*1242 FILLER_0_14_66
*1243 FILLER_0_14_78
*1244 FILLER_0_14_85
*1245 FILLER_0_14_89
*1246 FILLER_0_15_110
*1247 FILLER_0_15_113
*1248 FILLER_0_15_140
*1249 FILLER_0_15_152
*1250 FILLER_0_15_164
*1251 FILLER_0_15_169
*1252 FILLER_0_15_177
*1253 FILLER_0_15_183
*1254 FILLER_0_15_191
*1255 FILLER_0_15_203
*1256 FILLER_0_15_209
*1257 FILLER_0_15_244
*1258 FILLER_0_15_250
*1259 FILLER_0_15_262
*1260 FILLER_0_15_274
*1261 FILLER_0_15_281
*1262 FILLER_0_15_298
*1263 FILLER_0_15_3
*1264 FILLER_0_15_306
*1265 FILLER_0_15_328
*1266 FILLER_0_15_334
*1267 FILLER_0_15_38
*1268 FILLER_0_15_55
*1269 FILLER_0_15_63
*1270 FILLER_0_15_71
*1271 FILLER_0_15_98
*1272 FILLER_0_16_134
*1273 FILLER_0_16_141
*1274 FILLER_0_16_148
*1275 FILLER_0_16_159
*1276 FILLER_0_16_167
*1277 FILLER_0_16_174
*1278 FILLER_0_16_186
*1279 FILLER_0_16_194
*1280 FILLER_0_16_197
*1281 FILLER_0_16_208
*1282 FILLER_0_16_220
*1283 FILLER_0_16_232
*1284 FILLER_0_16_277
*1285 FILLER_0_16_3
*1286 FILLER_0_16_309
*1287 FILLER_0_16_316
*1288 FILLER_0_16_322
*1289 FILLER_0_16_334
*1290 FILLER_0_16_69
*1291 FILLER_0_17_11
*1292 FILLER_0_17_113
*1293 FILLER_0_17_125
*1294 FILLER_0_17_153
*1295 FILLER_0_17_169
*1296 FILLER_0_17_186
*1297 FILLER_0_17_198
*1298 FILLER_0_17_20
*1299 FILLER_0_17_206
*1300 FILLER_0_17_233
*1301 FILLER_0_17_240
*1302 FILLER_0_17_248
*1303 FILLER_0_17_26
*1304 FILLER_0_17_267
*1305 FILLER_0_17_275
*1306 FILLER_0_17_3
*1307 FILLER_0_17_302
*1308 FILLER_0_17_329
*1309 FILLER_0_17_47
*1310 FILLER_0_17_64
*1311 FILLER_0_17_72
*1312 FILLER_0_17_98
*1313 FILLER_0_18_104
*1314 FILLER_0_18_110
*1315 FILLER_0_18_136
*1316 FILLER_0_18_144
*1317 FILLER_0_18_15
*1318 FILLER_0_18_185
*1319 FILLER_0_18_193
*1320 FILLER_0_18_197
*1321 FILLER_0_18_21
*1322 FILLER_0_18_225
*1323 FILLER_0_18_237
*1324 FILLER_0_18_249
*1325 FILLER_0_18_25
*1326 FILLER_0_18_261
*1327 FILLER_0_18_273
*1328 FILLER_0_18_288
*1329 FILLER_0_18_3
*1330 FILLER_0_18_300
*1331 FILLER_0_18_309
*1332 FILLER_0_18_313
*1333 FILLER_0_18_32
*1334 FILLER_0_18_322
*1335 FILLER_0_18_331
*1336 FILLER_0_18_40
*1337 FILLER_0_18_45
*1338 FILLER_0_18_53
*1339 FILLER_0_18_62
*1340 FILLER_0_18_74
*1341 FILLER_0_18_78
*1342 FILLER_0_18_96
*1343 FILLER_0_19_102
*1344 FILLER_0_19_11
*1345 FILLER_0_19_110
*1346 FILLER_0_19_113
*1347 FILLER_0_19_125
*1348 FILLER_0_19_137
*1349 FILLER_0_19_149
*1350 FILLER_0_19_161
*1351 FILLER_0_19_169
*1352 FILLER_0_19_175
*1353 FILLER_0_19_187
*1354 FILLER_0_19_199
*1355 FILLER_0_19_218
*1356 FILLER_0_19_225
*1357 FILLER_0_19_250
*1358 FILLER_0_19_262
*1359 FILLER_0_19_268
*1360 FILLER_0_19_297
*1361 FILLER_0_19_3
*1362 FILLER_0_19_329
*1363 FILLER_0_19_43
*1364 FILLER_0_19_48
*1365 FILLER_0_19_64
*1366 FILLER_0_19_76
*1367 FILLER_0_19_88
*1368 FILLER_0_1_111
*1369 FILLER_0_1_113
*1370 FILLER_0_1_15
*1371 FILLER_0_1_169
*1372 FILLER_0_1_194
*1373 FILLER_0_1_205
*1374 FILLER_0_1_225
*1375 FILLER_0_1_237
*1376 FILLER_0_1_263
*1377 FILLER_0_1_27
*1378 FILLER_0_1_288
*1379 FILLER_0_1_292
*1380 FILLER_0_1_3
*1381 FILLER_0_1_309
*1382 FILLER_0_1_321
*1383 FILLER_0_1_333
*1384 FILLER_0_1_39
*1385 FILLER_0_1_91
*1386 FILLER_0_20_106
*1387 FILLER_0_20_114
*1388 FILLER_0_20_124
*1389 FILLER_0_20_130
*1390 FILLER_0_20_141
*1391 FILLER_0_20_153
*1392 FILLER_0_20_159
*1393 FILLER_0_20_189
*1394 FILLER_0_20_197
*1395 FILLER_0_20_219
*1396 FILLER_0_20_251
*1397 FILLER_0_20_256
*1398 FILLER_0_20_281
*1399 FILLER_0_20_3
*1400 FILLER_0_20_306
*1401 FILLER_0_20_309
*1402 FILLER_0_20_313
*1403 FILLER_0_20_317
*1404 FILLER_0_20_32
*1405 FILLER_0_20_327
*1406 FILLER_0_20_59
*1407 FILLER_0_20_71
*1408 FILLER_0_20_75
*1409 FILLER_0_20_85
*1410 FILLER_0_21_103
*1411 FILLER_0_21_113
*1412 FILLER_0_21_120
*1413 FILLER_0_21_144
*1414 FILLER_0_21_156
*1415 FILLER_0_21_166
*1416 FILLER_0_21_185
*1417 FILLER_0_21_217
*1418 FILLER_0_21_22
*1419 FILLER_0_21_223
*1420 FILLER_0_21_225
*1421 FILLER_0_21_231
*1422 FILLER_0_21_248
*1423 FILLER_0_21_260
*1424 FILLER_0_21_271
*1425 FILLER_0_21_299
*1426 FILLER_0_21_3
*1427 FILLER_0_21_311
*1428 FILLER_0_21_329
*1429 FILLER_0_21_40
*1430 FILLER_0_21_48
*1431 FILLER_0_21_54
*1432 FILLER_0_21_62
*1433 FILLER_0_21_66
*1434 FILLER_0_22_105
*1435 FILLER_0_22_113
*1436 FILLER_0_22_120
*1437 FILLER_0_22_124
*1438 FILLER_0_22_128
*1439 FILLER_0_22_135
*1440 FILLER_0_22_139
*1441 FILLER_0_22_146
*1442 FILLER_0_22_173
*1443 FILLER_0_22_202
*1444 FILLER_0_22_214
*1445 FILLER_0_22_226
*1446 FILLER_0_22_238
*1447 FILLER_0_22_250
*1448 FILLER_0_22_253
*1449 FILLER_0_22_265
*1450 FILLER_0_22_273
*1451 FILLER_0_22_285
*1452 FILLER_0_22_297
*1453 FILLER_0_22_3
*1454 FILLER_0_22_328
*1455 FILLER_0_22_334
*1456 FILLER_0_22_45
*1457 FILLER_0_22_57
*1458 FILLER_0_22_65
*1459 FILLER_0_22_93
*1460 FILLER_0_23_110
*1461 FILLER_0_23_129
*1462 FILLER_0_23_15
*1463 FILLER_0_23_154
*1464 FILLER_0_23_158
*1465 FILLER_0_23_162
*1466 FILLER_0_23_169
*1467 FILLER_0_23_176
*1468 FILLER_0_23_182
*1469 FILLER_0_23_200
*1470 FILLER_0_23_212
*1471 FILLER_0_23_225
*1472 FILLER_0_23_233
*1473 FILLER_0_23_245
*1474 FILLER_0_23_278
*1475 FILLER_0_23_281
*1476 FILLER_0_23_289
*1477 FILLER_0_23_3
*1478 FILLER_0_23_307
*1479 FILLER_0_23_316
*1480 FILLER_0_23_333
*1481 FILLER_0_23_42
*1482 FILLER_0_23_50
*1483 FILLER_0_23_74
*1484 FILLER_0_23_83
*1485 FILLER_0_23_87
*1486 FILLER_0_23_98
*1487 FILLER_0_24_111
*1488 FILLER_0_24_117
*1489 FILLER_0_24_129
*1490 FILLER_0_24_137
*1491 FILLER_0_24_141
*1492 FILLER_0_24_147
*1493 FILLER_0_24_15
*1494 FILLER_0_24_155
*1495 FILLER_0_24_163
*1496 FILLER_0_24_174
*1497 FILLER_0_24_19
*1498 FILLER_0_24_194
*1499 FILLER_0_24_197
*1500 FILLER_0_24_209
*1501 FILLER_0_24_23
*1502 FILLER_0_24_240
*1503 FILLER_0_24_278
*1504 FILLER_0_24_29
*1505 FILLER_0_24_292
*1506 FILLER_0_24_3
*1507 FILLER_0_24_306
*1508 FILLER_0_24_309
*1509 FILLER_0_24_327
*1510 FILLER_0_24_33
*1511 FILLER_0_24_42
*1512 FILLER_0_24_53
*1513 FILLER_0_24_81
*1514 FILLER_0_24_85
*1515 FILLER_0_25_110
*1516 FILLER_0_25_121
*1517 FILLER_0_25_133
*1518 FILLER_0_25_137
*1519 FILLER_0_25_164
*1520 FILLER_0_25_169
*1521 FILLER_0_25_175
*1522 FILLER_0_25_179
*1523 FILLER_0_25_192
*1524 FILLER_0_25_199
*1525 FILLER_0_25_207
*1526 FILLER_0_25_281
*1527 FILLER_0_25_299
*1528 FILLER_0_25_3
*1529 FILLER_0_25_308
*1530 FILLER_0_25_31
*1531 FILLER_0_25_334
*1532 FILLER_0_25_43
*1533 FILLER_0_25_54
*1534 FILLER_0_25_57
*1535 FILLER_0_25_67
*1536 FILLER_0_25_86
*1537 FILLER_0_25_9
*1538 FILLER_0_26_127
*1539 FILLER_0_26_131
*1540 FILLER_0_26_141
*1541 FILLER_0_26_167
*1542 FILLER_0_26_180
*1543 FILLER_0_26_193
*1544 FILLER_0_26_205
*1545 FILLER_0_26_217
*1546 FILLER_0_26_231
*1547 FILLER_0_26_243
*1548 FILLER_0_26_260
*1549 FILLER_0_26_294
*1550 FILLER_0_26_3
*1551 FILLER_0_26_325
*1552 FILLER_0_26_333
*1553 FILLER_0_26_53
*1554 FILLER_0_26_7
*1555 FILLER_0_26_75
*1556 FILLER_0_26_83
*1557 FILLER_0_26_85
*1558 FILLER_0_27_111
*1559 FILLER_0_27_121
*1560 FILLER_0_27_143
*1561 FILLER_0_27_159
*1562 FILLER_0_27_167
*1563 FILLER_0_27_169
*1564 FILLER_0_27_214
*1565 FILLER_0_27_237
*1566 FILLER_0_27_249
*1567 FILLER_0_27_253
*1568 FILLER_0_27_262
*1569 FILLER_0_27_268
*1570 FILLER_0_27_281
*1571 FILLER_0_27_293
*1572 FILLER_0_27_3
*1573 FILLER_0_27_328
*1574 FILLER_0_27_334
*1575 FILLER_0_27_36
*1576 FILLER_0_27_7
*1577 FILLER_0_27_77
*1578 FILLER_0_28_100
*1579 FILLER_0_28_111
*1580 FILLER_0_28_138
*1581 FILLER_0_28_149
*1582 FILLER_0_28_161
*1583 FILLER_0_28_173
*1584 FILLER_0_28_179
*1585 FILLER_0_28_197
*1586 FILLER_0_28_245
*1587 FILLER_0_28_251
*1588 FILLER_0_28_253
*1589 FILLER_0_28_276
*1590 FILLER_0_28_29
*1591 FILLER_0_28_3
*1592 FILLER_0_28_321
*1593 FILLER_0_28_333
*1594 FILLER_0_28_37
*1595 FILLER_0_28_75
*1596 FILLER_0_28_85
*1597 FILLER_0_29_121
*1598 FILLER_0_29_144
*1599 FILLER_0_29_15
*1600 FILLER_0_29_172
*1601 FILLER_0_29_201
*1602 FILLER_0_29_294
*1603 FILLER_0_29_3
*1604 FILLER_0_29_301
*1605 FILLER_0_29_326
*1606 FILLER_0_29_334
*1607 FILLER_0_29_41
*1608 FILLER_0_29_69
*1609 FILLER_0_29_81
*1610 FILLER_0_29_89
*1611 FILLER_0_2_101
*1612 FILLER_0_2_15
*1613 FILLER_0_2_159
*1614 FILLER_0_2_219
*1615 FILLER_0_2_228
*1616 FILLER_0_2_236
*1617 FILLER_0_2_250
*1618 FILLER_0_2_27
*1619 FILLER_0_2_29
*1620 FILLER_0_2_3
*1621 FILLER_0_2_300
*1622 FILLER_0_2_309
*1623 FILLER_0_2_321
*1624 FILLER_0_2_333
*1625 FILLER_0_2_71
*1626 FILLER_0_2_82
*1627 FILLER_0_30_120
*1628 FILLER_0_30_138
*1629 FILLER_0_30_179
*1630 FILLER_0_30_187
*1631 FILLER_0_30_193
*1632 FILLER_0_30_208
*1633 FILLER_0_30_25
*1634 FILLER_0_30_251
*1635 FILLER_0_30_256
*1636 FILLER_0_30_29
*1637 FILLER_0_30_3
*1638 FILLER_0_30_39
*1639 FILLER_0_30_66
*1640 FILLER_0_30_78
*1641 FILLER_0_31_122
*1642 FILLER_0_31_145
*1643 FILLER_0_31_15
*1644 FILLER_0_31_180
*1645 FILLER_0_31_19
*1646 FILLER_0_31_192
*1647 FILLER_0_31_198
*1648 FILLER_0_31_210
*1649 FILLER_0_31_218
*1650 FILLER_0_31_253
*1651 FILLER_0_31_263
*1652 FILLER_0_31_299
*1653 FILLER_0_31_3
*1654 FILLER_0_31_310
*1655 FILLER_0_31_329
*1656 FILLER_0_31_73
*1657 FILLER_0_31_81
*1658 FILLER_0_32_120
*1659 FILLER_0_32_130
*1660 FILLER_0_32_139
*1661 FILLER_0_32_149
*1662 FILLER_0_32_15
*1663 FILLER_0_32_155
*1664 FILLER_0_32_160
*1665 FILLER_0_32_182
*1666 FILLER_0_32_194
*1667 FILLER_0_32_197
*1668 FILLER_0_32_201
*1669 FILLER_0_32_219
*1670 FILLER_0_32_23
*1671 FILLER_0_32_244
*1672 FILLER_0_32_248
*1673 FILLER_0_32_269
*1674 FILLER_0_32_287
*1675 FILLER_0_32_29
*1676 FILLER_0_32_295
*1677 FILLER_0_32_3
*1678 FILLER_0_32_326
*1679 FILLER_0_32_334
*1680 FILLER_0_32_68
*1681 FILLER_0_32_80
*1682 FILLER_0_32_85
*1683 FILLER_0_33_111
*1684 FILLER_0_33_134
*1685 FILLER_0_33_146
*1686 FILLER_0_33_154
*1687 FILLER_0_33_158
*1688 FILLER_0_33_162
*1689 FILLER_0_33_167
*1690 FILLER_0_33_177
*1691 FILLER_0_33_189
*1692 FILLER_0_33_200
*1693 FILLER_0_33_208
*1694 FILLER_0_33_220
*1695 FILLER_0_33_241
*1696 FILLER_0_33_253
*1697 FILLER_0_33_276
*1698 FILLER_0_33_297
*1699 FILLER_0_33_3
*1700 FILLER_0_33_333
*1701 FILLER_0_33_35
*1702 FILLER_0_33_55
*1703 FILLER_0_33_61
*1704 FILLER_0_33_73
*1705 FILLER_0_33_85
*1706 FILLER_0_34_11
*1707 FILLER_0_34_113
*1708 FILLER_0_34_125
*1709 FILLER_0_34_137
*1710 FILLER_0_34_141
*1711 FILLER_0_34_15
*1712 FILLER_0_34_152
*1713 FILLER_0_34_182
*1714 FILLER_0_34_216
*1715 FILLER_0_34_224
*1716 FILLER_0_34_229
*1717 FILLER_0_34_241
*1718 FILLER_0_34_249
*1719 FILLER_0_34_253
*1720 FILLER_0_34_260
*1721 FILLER_0_34_27
*1722 FILLER_0_34_272
*1723 FILLER_0_34_278
*1724 FILLER_0_34_285
*1725 FILLER_0_34_3
*1726 FILLER_0_34_304
*1727 FILLER_0_34_328
*1728 FILLER_0_34_334
*1729 FILLER_0_34_45
*1730 FILLER_0_34_57
*1731 FILLER_0_34_69
*1732 FILLER_0_34_81
*1733 FILLER_0_35_109
*1734 FILLER_0_35_121
*1735 FILLER_0_35_146
*1736 FILLER_0_35_15
*1737 FILLER_0_35_159
*1738 FILLER_0_35_178
*1739 FILLER_0_35_190
*1740 FILLER_0_35_194
*1741 FILLER_0_35_210
*1742 FILLER_0_35_218
*1743 FILLER_0_35_239
*1744 FILLER_0_35_251
*1745 FILLER_0_35_263
*1746 FILLER_0_35_279
*1747 FILLER_0_35_288
*1748 FILLER_0_35_3
*1749 FILLER_0_35_301
*1750 FILLER_0_35_31
*1751 FILLER_0_35_323
*1752 FILLER_0_35_38
*1753 FILLER_0_35_42
*1754 FILLER_0_35_49
*1755 FILLER_0_35_55
*1756 FILLER_0_35_67
*1757 FILLER_0_35_79
*1758 FILLER_0_35_91
*1759 FILLER_0_36_117
*1760 FILLER_0_36_158
*1761 FILLER_0_36_185
*1762 FILLER_0_36_192
*1763 FILLER_0_36_202
*1764 FILLER_0_36_214
*1765 FILLER_0_36_249
*1766 FILLER_0_36_253
*1767 FILLER_0_36_291
*1768 FILLER_0_36_3
*1769 FILLER_0_36_303
*1770 FILLER_0_36_307
*1771 FILLER_0_36_325
*1772 FILLER_0_36_333
*1773 FILLER_0_36_45
*1774 FILLER_0_36_54
*1775 FILLER_0_36_7